SandboxData_C2S7_20210305/C2S7N00617/scenario_001/case.raw
0,100.0,33,0,0,60.0
GRID OPTIMIZATION COMPETITION CHALLENGE 2
INPUT DATA FILES ARE RAW JSON CON
1,'ATHENS 1 1',115.0,1,1,1,1,1.016155,3.966101,1.1,0.9,1.1,0.9
2,'ATHENS 2 1',115.0,1,1,1,1,1.01335537,3.491249,1.1,0.9,1.1,0.9
3,'ATHENS 3 1',115.0,1,1,1,1,1.01279855,3.475564,1.1,0.9,1.1,0.9
4,'FRANKSTON 1',115.0,1,1,1,1,1.01920152,10.165115,1.1,0.9,1.1,0.9
5,'FRANKSTON 2',115.0,1,1,1,1,1.01911056,10.156604,1.1,0.9,1.1,0.9
6,'PALESTINE ~1',115.0,1,1,1,1,1.00342631,9.537757,1.1,0.9,1.1,0.9
7,'PALESTINE ~2',115.0,1,1,1,1,1.00917828,10.408523,1.1,0.9,1.1,0.9
8,'PALESTINE ~3',230.0,1,1,1,1,1.03688896,15.927858,1.1,0.9,1.1,0.9
9,'PALESTINE ~4',115.0,1,1,1,1,1.02232766,12.510132,1.1,0.9,1.1,0.9
10,'PALESTINE ~5',115.0,1,1,1,1,1.01351643,6.721473,1.1,0.9,1.1,0.9
11,'PALESTINE ~6',115.0,1,1,1,1,1.01957214,9.825859,1.1,0.9,1.1,0.9
12,'PALESTINE ~7',230.0,1,1,1,1,1.03696477,15.451367,1.1,0.9,1.1,0.9
13,'PALESTINE ~8',230.0,1,1,1,1,1.03665149,15.318642,1.1,0.9,1.1,0.9
14,'PALESTINE ~9',115.0,1,1,1,1,1.02349341,11.071171,1.1,0.9,1.1,0.9
15,'BUFFALO 1',115.0,1,1,1,1,1.01867807,5.190774,1.1,0.9,1.1,0.9
16,'CENTERVILL~1',115.0,1,1,1,1,1.02382386,4.012816,1.1,0.9,1.1,0.9
17,'CROCKETT 1 1',115.0,1,1,1,1,1.01090348,5.720578,1.1,0.9,1.1,0.9
18,'CROCKETT 1 2',115.0,1,1,1,1,1.01095355,5.727104,1.1,0.9,1.1,0.9
19,'CROCKETT 2 1',230.0,1,1,1,1,1.03628707,11.646925,1.1,0.9,1.1,0.9
20,'CROCKETT 2 2',230.0,1,1,1,1,1.03588974,11.522994,1.1,0.9,1.1,0.9
21,'CROCKETT 2 3',115.0,1,1,1,1,1.02844024,8.545624,1.1,0.9,1.1,0.9
22,'CROCKETT 2 4',230.0,1,1,1,1,1.03705108,11.785495,1.1,0.9,1.1,0.9
23,'ELKHART 1',115.0,1,1,1,1,1.00085342,8.150248,1.1,0.9,1.1,0.9
24,'FAIRFIELD ~1',115.0,1,1,1,1,1.03480387,13.72514,1.1,0.9,1.1,0.9
25,'FAIRFIELD ~2',115.0,1,1,1,1,1.03555155,14.294343,1.1,0.9,1.1,0.9
26,'GRAPELAND 1',115.0,1,1,1,1,1.0019418,7.128659,1.1,0.9,1.1,0.9
27,'JEWETT 1',115.0,1,1,1,1,1.02938628,8.262156,1.1,0.9,1.1,0.9
28,'KENNARD 1',115.0,1,1,1,1,1.01935947,7.020458,1.1,0.9,1.1,0.9
29,'KENNARD 2',115.0,1,1,1,1,1.01937675,7.022834,1.1,0.9,1.1,0.9
30,'LOVELADY 1 1',115.0,1,1,1,1,1.00629663,3.977802,1.1,0.9,1.1,0.9
31,'LOVELADY 2 1',115.0,1,1,1,1,1.0061208,2.813667,1.1,0.9,1.1,0.9
32,'OAKWOOD 1',115.0,1,1,1,1,1.0148654,4.464685,1.1,0.9,1.1,0.9
33,'STREETMAN 1',115.0,1,1,1,1,1.02782595,12.611843,1.1,0.9,1.1,0.9
34,'TEAGUE 1',115.0,1,1,1,1,1.02987564,12.731649,1.1,0.9,1.1,0.9
35,'TENNESSEE ~1',115.0,1,1,1,1,1.00909114,3.330013,1.1,0.9,1.1,0.9
36,'TENNESSEE ~2',115.0,1,1,1,1,1.01086414,3.775088,1.1,0.9,1.1,0.9
37,'GLEN ROSE 1',230.0,1,1,1,1,1.02802134,4.62236,1.1,0.9,1.1,0.9
38,'GLEN ROSE 2',115.0,1,1,1,1,1.02718747,3.26004,1.1,0.9,1.1,0.9
39,'RIO VISTA 1',115.0,1,1,1,1,1.01021147,6.100969,1.1,0.9,1.1,0.9
40,'COMANCHE 1 1',115.0,1,1,1,1,1.0044415,-3.60125,1.1,0.9,1.1,0.9
41,'COMANCHE 1 2',115.0,1,1,1,1,1.00434554,-3.609516,1.1,0.9,1.1,0.9
42,'COMANCHE 2 1',115.0,1,1,1,1,1.00603986,-4.202784,1.1,0.9,1.1,0.9
43,'COMANCHE 2 2',115.0,1,1,1,1,1.0060848,-4.198916,1.1,0.9,1.1,0.9
44,'CROSS PLAI~1',115.0,1,1,1,1,0.99227816,-10.591239,1.1,0.9,1.1,0.9
45,'DE LEON 1',115.0,1,1,1,1,1.00778222,-2.235947,1.1,0.9,1.1,0.9
46,'DUBLIN 1 1',115.0,1,1,1,1,1.01784015,0.62889,1.1,0.9,1.1,0.9
47,'DUBLIN 2 1',230.0,1,1,1,1,1.01949918,1.953181,1.1,0.9,1.1,0.9
48,'DUBLIN 2 2',115.0,1,1,1,1,1.01659715,0.273491,1.1,0.9,1.1,0.9
49,'HICO 1',115.0,1,1,1,1,1.00885153,-2.273137,1.1,0.9,1.1,0.9
50,'HICO 2',115.0,1,1,1,1,1.0087688,-2.280278,1.1,0.9,1.1,0.9
51,'RISING STA~1',115.0,1,1,1,1,1.00019717,-8.840547,1.1,0.9,1.1,0.9
52,'TEMPLE 1 1',115.0,1,1,1,1,1.02805769,-0.587825,1.1,0.9,1.1,0.9
53,'TEMPLE 1 2',115.0,1,1,1,1,1.02794039,-0.60459,1.1,0.9,1.1,0.9
54,'TEMPLE 2 1',115.0,1,1,1,1,1.03078067,-0.239566,1.1,0.9,1.1,0.9
55,'TEMPLE 3 1',115.0,1,1,1,1,1.02830935,-0.575496,1.1,0.9,1.1,0.9
56,'TEMPLE 3 2',115.0,1,1,1,1,1.02824974,-0.583295,1.1,0.9,1.1,0.9
57,'TEMPLE 4 1',115.0,1,1,1,1,0.98562008,-7.157543,1.1,0.9,1.1,0.9
58,'TEMPLE 5 1',115.0,1,1,1,1,0.98559922,-6.860439,1.1,0.9,1.1,0.9
59,'TEMPLE 6 1',115.0,1,1,1,1,1.0244627,-0.944661,1.1,0.9,1.1,0.9
60,'TEMPLE 6 2',115.0,1,1,1,1,1.02437449,-0.956853,1.1,0.9,1.1,0.9
61,'TEMPLE 7 1',115.0,1,1,1,1,0.98777509,-7.236772,1.1,0.9,1.1,0.9
62,'BELTON 1 1',115.0,1,1,1,1,0.98960209,-8.110244,1.1,0.9,1.1,0.9
63,'BELTON 2 1',230.0,1,1,1,1,1.02995014,0.415739,1.1,0.9,1.1,0.9
64,'BELTON 2 2',115.0,1,1,1,1,1.00339973,-5.899211,1.1,0.9,1.1,0.9
65,'BELTON 3 1',230.0,1,1,1,1,1.03425491,2.238903,1.1,0.9,1.1,0.9
66,'BELTON 3 2',115.0,1,1,1,1,0.99391979,-7.369606,1.1,0.9,1.1,0.9
67,'BELTON 4 1',115.0,1,1,1,1,0.98910546,-7.968592,1.1,0.9,1.1,0.9
68,'CAMERON 1',115.0,1,1,1,1,1.02168357,1.012354,1.1,0.9,1.1,0.9
69,'GATESVILLE~1',115.0,1,1,1,1,1.00521553,-1.505062,1.1,0.9,1.1,0.9
70,'GATESVILLE~2',115.0,1,1,1,1,0.9988817,-1.444636,1.1,0.9,1.1,0.9
71,'GATESVILLE~3',230.0,1,1,1,1,1.0245769,-0.398631,1.1,0.9,1.1,0.9
72,'GATESVILLE~4',115.0,1,1,1,1,1.01192689,-1.391098,1.1,0.9,1.1,0.9
73,'GRANGER 1',115.0,1,1,1,1,0.99252832,-7.54481,1.1,0.9,1.1,0.9
74,'JARRELL 1',115.0,1,1,1,1,1.00125778,-5.742937,1.1,0.9,1.1,0.9
75,'KEMPNER 1 1',115.0,1,1,1,1,0.99233425,-8.324764,1.1,0.9,1.1,0.9
76,'KEMPNER 2 1',115.0,1,1,1,1,0.99781221,-7.431865,1.1,0.9,1.1,0.9
77,'KILLEEN 1 1',115.0,1,1,1,1,0.98565006,-10.225932,1.1,0.9,1.1,0.9
78,'KILLEEN 2 1',115.0,1,1,1,1,0.99116552,-11.046942,1.1,0.9,1.1,0.9
79,'KILLEEN 3 1',115.0,1,1,1,1,0.99601257,-11.894687,1.1,0.9,1.1,0.9
80,'KILLEEN 4 1',115.0,1,1,1,1,0.98492372,-9.990531,1.1,0.9,1.1,0.9
81,'KILLEEN 5 1',115.0,1,1,1,1,0.98405439,-10.030627,1.1,0.9,1.1,0.9
82,'KILLEEN 6 1',115.0,1,1,1,1,0.99120498,-11.641447,1.1,0.9,1.1,0.9
83,'KILLEEN 7 1',230.0,1,1,1,1,1.03612995,0.467311,1.1,0.9,1.1,0.9
84,'KILLEEN 7 2',230.0,1,1,1,1,1.03492022,0.341518,1.1,0.9,1.1,0.9
85,'KILLEEN 7 3',115.0,1,1,1,1,1.02876055,-0.574068,1.1,0.9,1.1,0.9
86,'KILLEEN 7 ~1',115.0,1,1,1,1,1.02875924,-0.574067,1.1,0.9,1.1,0.9
87,'KILLEEN 8 1',115.0,1,1,1,1,1.01625013,-1.505236,1.1,0.9,1.1,0.9
88,'FORT HOOD ~1',115.0,1,1,1,1,0.98804748,-10.569346,1.1,0.9,1.1,0.9
89,'FORT HOOD ~2',115.0,1,1,1,1,0.99295849,-11.511854,1.1,0.9,1.1,0.9
90,'FORT HOOD ~3',115.0,1,1,1,1,0.9928968,-11.521563,1.1,0.9,1.1,0.9
91,'FORT HOOD ~4',115.0,1,1,1,1,0.99725735,-11.966265,1.1,0.9,1.1,0.9
92,'FORT HOOD ~5',115.0,1,1,1,1,0.99680561,-11.933456,1.1,0.9,1.1,0.9
93,'HARKER HEI~1',115.0,1,1,1,1,0.98609078,-9.006151,1.1,0.9,1.1,0.9
94,'KILLEEN 9 1',115.0,1,1,1,1,0.98363507,-10.11487,1.1,0.9,1.1,0.9
95,'KILLEEN 10 1',115.0,1,1,1,1,0.98890871,-10.083618,1.1,0.9,1.1,0.9
96,'KILLEEN 11 1',115.0,1,1,1,1,0.98585212,-9.898176,1.1,0.9,1.1,0.9
97,'KILLEEN 11 2',115.0,1,1,1,1,0.98604715,-9.881449,1.1,0.9,1.1,0.9
98,'KILLEEN 12 1',230.0,1,1,1,1,1.02483392,-1.772396,1.1,0.9,1.1,0.9
99,'KILLEEN 12~1',230.0,1,1,1,1,1.02483392,-1.772396,1.1,0.9,1.1,0.9
100,'KILLEEN 12 2',115.0,1,1,1,1,0.99335146,-9.457784,1.1,0.9,1.1,0.9
101,'KILLEEN 12 3',230.0,1,1,1,1,1.0247401,-1.786601,1.1,0.9,1.1,0.9
102,'LAMPASAS 1 1',115.0,1,1,1,1,1.01258278,-4.889072,1.1,0.9,1.1,0.9
103,'LAMPASAS 2 1',230.0,1,1,1,1,1.03145885,-1.401954,1.1,0.9,1.1,0.9
104,'LAMPASAS 2 2',115.0,1,1,1,1,1.01894069,-3.934725,1.1,0.9,1.1,0.9
105,'MOODY 1',115.0,1,1,1,1,0.98685402,-4.535515,1.1,0.9,1.1,0.9
106,'MOODY 2',115.0,1,1,1,1,0.98689687,-4.525884,1.1,0.9,1.1,0.9
107,'ROCKDALE 1 1',115.0,1,1,1,1,1.03410065,1.367868,1.1,0.9,1.1,0.9
108,'ROCKDALE 2 1',115.0,1,1,1,1,1.03575397,1.322437,1.1,0.9,1.1,0.9
109,'ROCKDALE 3 1',115.0,1,1,1,1,1.03406858,1.209573,1.1,0.9,1.1,0.9
110,'ROGERS 1',115.0,1,1,1,1,1.02037382,-1.268976,1.1,0.9,1.1,0.9
111,'ROSEBUD 1',115.0,1,1,1,1,1.02744627,0.815971,1.1,0.9,1.1,0.9
112,'TAYLOR 1 1',115.0,1,1,1,1,0.99262106,-9.866491,1.1,0.9,1.1,0.9
113,'TAYLOR 2 1',115.0,1,1,1,1,1.00206745,-10.63251,1.1,0.9,1.1,0.9
114,'TAYLOR 3 1',115.0,1,1,1,1,0.99418968,-10.188145,1.1,0.9,1.1,0.9
115,'TAYLOR 3 2',115.0,1,1,1,1,0.994295,-10.177574,1.1,0.9,1.1,0.9
116,'THORNDALE ~1',115.0,1,1,1,1,0.99326438,-10.171945,1.1,0.9,1.1,0.9
117,'THORNDALE ~2',115.0,1,1,1,1,1.03844261,1.913543,1.1,0.9,1.1,0.9
118,'TROY 1',115.0,1,1,1,1,0.9953748,-0.943587,1.1,0.9,1.1,0.9
119,'CLIFTON 1 1',115.0,1,1,1,1,0.99141783,-0.81265,1.1,0.9,1.1,0.9
120,'CLIFTON 2 1',115.0,1,1,1,1,0.99139845,-0.479371,1.1,0.9,1.1,0.9
121,'CRAWFORD 1',115.0,1,1,1,1,1.00085235,2.027628,1.1,0.9,1.1,0.9
122,'HILLSBORO ~1',230.0,1,1,1,1,1.03270841,7.519774,1.1,0.9,1.1,0.9
123,'HILLSBORO ~2',115.0,1,1,1,1,1.02380705,6.799257,1.1,0.9,1.1,0.9
124,'HILLSBORO ~3',230.0,1,1,1,1,1.03260422,7.514461,1.1,0.9,1.1,0.9
125,'HILLSBORO ~4',115.0,1,1,1,1,0.9969312,6.191224,1.1,0.9,1.1,0.9
126,'HUBBARD 1',115.0,1,1,1,1,1.02175069,5.036528,1.1,0.9,1.1,0.9
127,'LORENA 1',115.0,1,1,1,1,1.00374722,0.512204,1.1,0.9,1.1,0.9
128,'LOTT 1',115.0,1,1,1,1,0.99946964,-0.196868,1.1,0.9,1.1,0.9
129,'LOTT 2',115.0,1,1,1,1,0.99941182,-0.205086,1.1,0.9,1.1,0.9
130,'MARLIN 1 1',115.0,1,1,1,1,1.02210307,2.784215,1.1,0.9,1.1,0.9
131,'MARLIN 2 1',115.0,1,1,1,1,1.01369989,2.480533,1.1,0.9,1.1,0.9
132,'MART 1',115.0,1,1,1,1,1.03233743,6.648496,1.1,0.9,1.1,0.9
133,'MERIDIAN 1',115.0,1,1,1,1,0.98992944,-0.923929,1.1,0.9,1.1,0.9
134,'MEXIA 1',230.0,1,1,1,1,1.04319096,11.495992,1.1,0.9,1.1,0.9
135,'MEXIA 2',115.0,1,1,1,1,1.0381223,8.273032,1.1,0.9,1.1,0.9
136,'MEXIA 3',230.0,1,1,1,1,1.04303622,11.463971,1.1,0.9,1.1,0.9
137,'WEST 1',115.0,1,1,1,1,1.02055621,4.738002,1.1,0.9,1.1,0.9
138,'WHITNEY 1 1',115.0,1,1,1,1,1.03499687,7.390559,1.1,0.9,1.1,0.9
139,'WHITNEY 2 1',115.0,1,1,1,1,1.03146088,6.99552,1.1,0.9,1.1,0.9
140,'WHITNEY 3 1',115.0,1,1,1,1,0.99950182,5.874394,1.1,0.9,1.1,0.9
141,'WACO 1 1',230.0,1,1,1,1,1.04174209,8.459694,1.1,0.9,1.1,0.9
142,'WACO 1 2',230.0,1,1,1,1,1.04073536,8.316691,1.1,0.9,1.1,0.9
143,'WACO 1 3',115.0,1,1,1,1,1.02388799,4.813719,1.1,0.9,1.1,0.9
144,'WACO 1 4',230.0,1,1,1,1,1.04325402,8.604221,1.1,0.9,1.1,0.9
145,'WACO 2 1',115.0,1,1,1,1,1.0197922,5.147287,1.1,0.9,1.1,0.9
146,'WACO 2 2',115.0,1,1,1,1,1.01971745,5.134219,1.1,0.9,1.1,0.9
147,'WACO 3 1',115.0,1,1,1,1,1.02345049,5.493885,1.1,0.9,1.1,0.9
148,'WACO 4 1',115.0,1,1,1,1,1.01210904,3.73972,1.1,0.9,1.1,0.9
149,'WACO 5 1',230.0,1,1,1,1,1.03895259,7.256937,1.1,0.9,1.1,0.9
150,'WACO 5 2',115.0,1,1,1,1,1.01881313,3.089945,1.1,0.9,1.1,0.9
151,'WACO 6 1',115.0,1,1,1,1,1.01888704,4.571954,1.1,0.9,1.1,0.9
152,'WACO 7 1',115.0,1,1,1,1,1.01344156,2.25555,1.1,0.9,1.1,0.9
153,'WACO 8 1',230.0,1,1,1,1,1.03420079,7.877418,1.1,0.9,1.1,0.9
154,'WACO 8 2',115.0,1,1,1,1,1.01845288,4.522661,1.1,0.9,1.1,0.9
155,'WACO 9 1',115.0,1,1,1,1,1.01670456,4.350646,1.1,0.9,1.1,0.9
156,'WACO 9 2',115.0,1,1,1,1,1.01663649,4.340589,1.1,0.9,1.1,0.9
157,'WACO 10 1',115.0,1,1,1,1,1.01507068,4.295792,1.1,0.9,1.1,0.9
158,'WACO 11 1',115.0,1,1,1,1,1.01065731,1.805088,1.1,0.9,1.1,0.9
159,'WACO 12 1',115.0,1,1,1,1,1.01184893,3.689443,1.1,0.9,1.1,0.9
160,'WACO 13 1',115.0,1,1,1,1,1.0081774,3.147476,1.1,0.9,1.1,0.9
161,'WOODWAY 1 1',115.0,1,1,1,1,1.00731623,3.170859,1.1,0.9,1.1,0.9
162,'WOODWAY 2 1',115.0,1,1,1,1,1.00672364,3.126649,1.1,0.9,1.1,0.9
163,'WOODWAY 2 2',115.0,1,1,1,1,1.00661695,3.115352,1.1,0.9,1.1,0.9
164,'BROWNWOOD ~1',115.0,1,1,1,1,1.01950705,-5.886396,1.1,0.9,1.1,0.9
165,'BROWNWOOD ~2',230.0,1,1,1,1,1.04447293,-2.286337,1.1,0.9,1.1,0.9
166,'BROWNWOOD ~3',230.0,1,1,1,1,1.04399872,-2.318756,1.1,0.9,1.1,0.9
167,'BROWNWOOD ~4',115.0,1,1,1,1,1.02528644,-5.371353,1.1,0.9,1.1,0.9
168,'BROWNWOOD ~5',230.0,1,1,1,1,1.04402769,-2.295193,1.1,0.9,1.1,0.9
169,'BROWNWOOD ~6',115.0,1,1,1,1,1.01137006,-7.07006,1.1,0.9,1.1,0.9
170,'BROWNWOOD ~7',115.0,1,1,1,1,1.0114876,-7.060628,1.1,0.9,1.1,0.9
171,'BROWNWOOD ~8',115.0,1,1,1,1,1.01888728,-5.845706,1.1,0.9,1.1,0.9
172,'EARLY 1',115.0,1,1,1,1,1.01586556,-5.780861,1.1,0.9,1.1,0.9
173,'BRADY 1 1',115.0,1,1,1,1,0.97551477,-16.741067,1.1,0.9,1.1,0.9
174,'BRADY 2 1',115.0,1,1,1,1,0.9727757,-15.95698,1.1,0.9,1.1,0.9
175,'BRADY 2 2',115.0,1,1,1,1,0.97518164,-15.61454,1.1,0.9,1.1,0.9
176,'BRADY 2 3',115.0,1,1,1,1,0.97272885,-15.961782,1.1,0.9,1.1,0.9
177,'BRADY 2 3 ~2',230.0,1,1,1,1,0.97274637,-15.959475,1.1,0.9,1.1,0.9
178,'COLEMAN 1 1',115.0,1,1,1,1,0.9843024,-12.540637,1.1,0.9,1.1,0.9
179,'COLEMAN 1 2',115.0,1,1,1,1,0.9842487,-12.547312,1.1,0.9,1.1,0.9
180,'COLEMAN 2 1',115.0,1,1,1,1,0.98591012,-12.140122,1.1,0.9,1.1,0.9
181,'MASON 1',115.0,1,1,1,1,0.9782902,-18.117785,1.1,0.9,1.1,0.9
182,'ROCHELLE 1',115.0,1,1,1,1,0.98348218,-12.812063,1.1,0.9,1.1,0.9
183,'SAN SABA 1',115.0,1,1,1,1,0.99197137,-10.300367,1.1,0.9,1.1,0.9
184,'SANTA ANNA 1',115.0,1,1,1,1,0.98356992,-12.886427,1.1,0.9,1.1,0.9
185,'CONROE 1 1',115.0,1,1,1,1,1.01353538,-6.766998,1.1,0.9,1.1,0.9
186,'CONROE 2 1',230.0,1,1,1,1,1.01612091,-2.541261,1.1,0.9,1.1,0.9
187,'CONROE 2 2',115.0,1,1,1,1,1.01166368,-4.672487,1.1,0.9,1.1,0.9
188,'CONROE 2 3',230.0,1,1,1,1,1.01647592,-2.483991,1.1,0.9,1.1,0.9
189,'CONROE 3 1',115.0,1,1,1,1,1.01275325,-3.990737,1.1,0.9,1.1,0.9
190,'CONROE 4 1',115.0,1,1,1,1,1.01213253,-4.419467,1.1,0.9,1.1,0.9
191,'CONROE 5 1',115.0,1,1,1,1,1.00781345,-5.132909,1.1,0.9,1.1,0.9
192,'CONROE 6 1',115.0,1,1,1,1,1.01038909,-4.409645,1.1,0.9,1.1,0.9
193,'CONROE 7 1',115.0,1,1,1,1,1.01412475,-4.087187,1.1,0.9,1.1,0.9
194,'CONROE 8 1',115.0,1,1,1,1,1.02717459,-7.714294,1.1,0.9,1.1,0.9
195,'CONROE 9 1',115.0,1,1,1,1,1.00754118,-5.011132,1.1,0.9,1.1,0.9
196,'CONROE 9 1~1',115.0,1,1,1,1,1.00755405,-5.000929,1.1,0.9,1.1,0.9
197,'MONTGOMERY~1',115.0,1,1,1,1,1.01406264,-3.730647,1.1,0.9,1.1,0.9
198,'WILLIS 1 1',115.0,1,1,1,1,1.01449072,-3.424481,1.1,0.9,1.1,0.9
199,'WILLIS 2 1',115.0,1,1,1,1,1.01970923,-1.480736,1.1,0.9,1.1,0.9
200,'WILLIS 3 1',115.0,1,1,1,1,1.01330626,-3.684605,1.1,0.9,1.1,0.9
...
0 / END OF BUS DATA BEGIN LOAD DATA
1,'1',1,1,1,14.88,3.825,0.0,0.0,0.0,0.0,1,1,0
2,'1',1,1,1,14.96,0.585,0.0,0.0,0.0,0.0,1,1,0
3,'1',1,1,1,29.76,2.325,0.0,0.0,0.0,0.0,1,1,0
5,'1',1,1,1,15.349,5.735,0.0,0.0,0.0,0.0,1,1,0
6,'1',1,1,1,14.043,7.058,0.0,0.0,0.0,0.0,1,1,0
7,'1',1,1,1,16.26,7.284,0.0,0.0,0.0,0.0,1,1,0
9,'1',1,1,1,27.744,4.603,0.0,0.0,0.0,0.0,1,1,0
10,'1',1,1,1,12.472,1.462,0.0,0.0,0.0,0.0,1,1,0
11,'1',1,1,1,11.711,4.134,0.0,0.0,0.0,0.0,1,1,0
14,'1',1,1,1,38.64,15.93,0.0,0.0,0.0,0.0,1,1,0
15,'1',1,1,1,12.144,2.391,0.0,0.0,0.0,0.0,1,1,0
16,'1',1,1,1,7.36,2.353,0.0,0.0,0.0,0.0,1,1,0
17,'1',1,1,1,10.571,1.916,0.0,0.0,0.0,0.0,1,1,0
21,'1',1,1,1,20.574,0.783,0.0,0.0,0.0,0.0,1,1,0
23,'1',1,1,1,10.087,2.48,0.0,0.0,0.0,0.0,1,1,0
24,'1',1,1,1,8.186,1.829,0.0,0.0,0.0,0.0,1,1,0
25,'1',1,1,1,13.751,1.201,0.0,0.0,0.0,0.0,1,1,0
26,'1',1,1,1,10.489,1.426,0.0,0.0,0.0,0.0,1,1,0
27,'1',1,1,1,9.176,1.606,0.0,0.0,0.0,0.0,1,1,0
28,'1',1,1,1,4.344,0.657,0.0,0.0,0.0,0.0,1,1,0
30,'1',1,1,1,6.966,0.981,0.0,0.0,0.0,0.0,1,1,0
31,'1',1,1,1,4.78,1.009,0.0,0.0,0.0,0.0,1,1,0
32,'1',1,1,1,5.76,1.706,0.0,0.0,0.0,0.0,1,1,0
33,'1',1,1,1,5.778,1.686,0.0,0.0,0.0,0.0,1,1,0
34,'1',1,1,1,23.548,6.37,0.0,0.0,0.0,0.0,1,1,0
35,'1',1,1,1,18.48,5.76,0.0,0.0,0.0,0.0,1,1,0
36,'1',1,1,1,8.304,3.293,0.0,0.0,0.0,0.0,1,1,0
38,'1',1,1,1,14.427,0.969,0.0,0.0,0.0,0.0,1,1,0
39,'1',1,1,1,12.488,2.692,0.0,0.0,0.0,0.0,1,1,0
41,'1',1,1,1,14.14,4.909,0.0,0.0,0.0,0.0,1,1,0
42,'1',1,1,1,7.28,2.551,0.0,0.0,0.0,0.0,1,1,0
44,'1',1,1,1,4.682,1.428,0.0,0.0,0.0,0.0,1,1,0
45,'1',1,1,1,11.042,3.226,0.0,0.0,0.0,0.0,1,1,0
46,'1',1,1,1,6.605,1.244,0.0,0.0,0.0,0.0,1,1,0
48,'1',1,1,1,19.188,5.617,0.0,0.0,0.0,0.0,1,1,0
50,'1',1,1,1,11.65,4.367,0.0,0.0,0.0,0.0,1,1,0
51,'1',1,1,1,6.727,1.813,0.0,0.0,0.0,0.0,1,1,0
53,'1',1,1,1,29.242,3.285,0.0,0.0,0.0,0.0,1,1,0
54,'1',1,1,1,11.66,5.038,0.0,0.0,0.0,0.0,1,1,0
56,'1',1,1,1,12.82,2.173,0.0,0.0,0.0,0.0,1,1,0
57,'1',1,1,1,24.454,5.204,0.0,0.0,0.0,0.0,1,1,0
58,'1',1,1,1,42.281,5.676,0.0,0.0,0.0,0.0,1,1,0
60,'1',1,1,1,20.707,3.444,0.0,0.0,0.0,0.0,1,1,0
61,'1',1,1,1,20.094,5.558,0.0,0.0,0.0,0.0,1,1,0
62,'1',1,1,1,20.081,1.983,0.0,0.0,0.0,0.0,1,1,0
64,'1',1,1,1,51.866,10.002,0.0,0.0,0.0,0.0,1,1,0
66,'1',1,1,1,55.583,11.688,0.0,0.0,0.0,0.0,1,1,0
67,'1',1,1,1,23.58,15.288,0.0,0.0,0.0,0.0,1,1,0
68,'1',1,1,1,26.295,2.96,0.0,0.0,0.0,0.0,1,1,0
69,'1',1,1,1,8.634,3.707,0.0,0.0,0.0,0.0,1,1,0
70,'1',1,1,1,10.354,3.533,0.0,0.0,0.0,0.0,1,1,0
72,'1',1,1,1,29.28,11.205,0.0,0.0,0.0,0.0,1,1,0
73,'1',1,1,1,14.209,2.925,0.0,0.0,0.0,0.0,1,1,0
74,'1',1,1,1,10.68,1.152,0.0,0.0,0.0,0.0,1,1,0
75,'1',1,1,1,6.266,1.679,0.0,0.0,0.0,0.0,1,1,0
76,'1',1,1,1,5.468,2.129,0.0,0.0,0.0,0.0,1,1,0
76,'2',1,1,1,7.21,2.699,0.0,0.0,0.0,0.0,1,1,0
77,'1',1,1,1,33.341,5.644,0.0,0.0,0.0,0.0,1,1,0
78,'1',1,1,1,12.678,4.134,0.0,0.0,0.0,0.0,1,1,0
79,'1',1,1,1,21.498,17.163,0.0,0.0,0.0,0.0,1,1,0
80,'1',1,1,1,27.61,12.203,0.0,0.0,0.0,0.0,1,1,0
81,'1',1,1,1,20.979,9.263,0.0,0.0,0.0,0.0,1,1,0
81,'2',1,1,1,3.73,1.475,0.0,0.0,0.0,0.0,1,1,0
82,'1',1,1,1,25.952,16.444,0.0,0.0,0.0,0.0,1,1,0
87,'1',1,1,1,25.308,12.538,0.0,0.0,0.0,0.0,1,1,0
88,'1',1,1,1,19.82,6.354,0.0,0.0,0.0,0.0,1,1,0
90,'1',1,1,1,14.725,2.086,0.0,0.0,0.0,0.0,1,1,0
91,'1',1,1,1,17.927,4.06,0.0,0.0,0.0,0.0,1,1,0
91,'2',1,1,1,20.66,5.279,0.0,0.0,0.0,0.0,1,1,0
93,'1',1,1,1,47.596,10.192,0.0,0.0,0.0,0.0,1,1,0
94,'1',1,1,1,23.625,6.246,0.0,0.0,0.0,0.0,1,1,0
95,'1',1,1,1,28.329,7.83,0.0,0.0,0.0,0.0,1,1,0
96,'1',1,1,1,30.7,10.117,0.0,0.0,0.0,0.0,1,1,0
101,'1',1,1,1,25.128,4.047,0.0,0.0,0.0,0.0,1,1,0
102,'1',1,1,1,11.809,3.131,0.0,0.0,0.0,0.0,1,1,0
104,'1',1,1,1,10.587,7.296,0.0,0.0,0.0,0.0,1,1,0
104,'2',1,1,1,10.576,2.584,0.0,0.0,0.0,0.0,1,1,0
105,'1',1,1,1,14.29,0.936,0.0,0.0,0.0,0.0,1,1,0
107,'1',1,1,1,8.551,1.936,0.0,0.0,0.0,0.0,1,1,0
107,'2',1,1,1,1.594,0.797,0.0,0.0,0.0,0.0,1,1,0
108,'1',1,1,1,7.716,1.713,0.0,0.0,0.0,0.0,1,1,0
108,'2',1,1,1,5.14,0.689,0.0,0.0,0.0,0.0,1,1,0
109,'1',1,1,1,11.17,3.743,0.0,0.0,0.0,0.0,1,1,0
110,'1',1,1,1,9.84,0.747,0.0,0.0,0.0,0.0,1,1,0
111,'1',1,1,1,6.128,1.034,0.0,0.0,0.0,0.0,1,1,0
112,'1',1,1,1,11.66,0.93,0.0,0.0,0.0,0.0,1,1,0
112,'2',1,1,1,15.24,3.51,0.0,0.0,0.0,0.0,1,1,0
113,'1',1,1,1,15.24,3.18,0.0,0.0,0.0,0.0,1,1,0
114,'1',1,1,1,15.24,5.43,0.0,0.0,0.0,0.0,1,1,0
114,'2',1,1,1,1.48,0.09,0.0,0.0,0.0,0.0,1,1,0
116,'1',1,1,1,5.322,0.2,0.0,0.0,0.0,0.0,1,1,0
117,'1',1,1,1,5.071,0.574,0.0,0.0,0.0,0.0,1,1,0
118,'1',1,1,1,18.26,6.568,0.0,0.0,0.0,0.0,1,1,0
119,'1',1,1,1,13.55,5.053,0.0,0.0,0.0,0.0,1,1,0
120,'1',1,1,1,23.07,5.625,0.0,0.0,0.0,0.0,1,1,0
121,'1',1,1,1,20.1,8.52,0.0,0.0,0.0,0.0,1,1,0
124,'1',1,1,1,11.073,7.259,0.0,0.0,0.0,0.0,1,1,0
125,'1',1,1,1,24.97,8.435,0.0,0.0,0.0,0.0,1,1,0
126,'1',1,1,1,11.228,6.403,0.0,0.0,0.0,0.0,1,1,0
127,'1',1,1,1,9.0,3.135,0.0,0.0,0.0,0.0,1,1,0
127,'2',1,1,1,1.542,1.028,0.0,0.0,0.0,0.0,1,1,0
129,'1',1,1,1,13.98,1.755,0.0,0.0,0.0,0.0,1,1,0
130,'1',1,1,1,18.98,1.966,0.0,0.0,0.0,0.0,1,1,0
131,'1',1,1,1,16.355,3.698,0.0,0.0,0.0,0.0,1,1,0
132,'1',1,1,1,12.62,2.879,0.0,0.0,0.0,0.0,1,1,0
133,'1',1,1,1,10.796,2.474,0.0,0.0,0.0,0.0,1,1,0
136,'1',1,1,1,54.691,1.701,0.0,0.0,0.0,0.0,1,1,0
137,'1',1,1,1,29.584,1.103,0.0,0.0,0.0,0.0,1,1,0
138,'1',1,1,1,7.958,1.48,0.0,0.0,0.0,0.0,1,1,0
139,'1',1,1,1,13.553,6.626,0.0,0.0,0.0,0.0,1,1,0
140,'1',1,1,1,16.92,4.755,0.0,0.0,0.0,0.0,1,1,0
143,'1',1,1,1,79.37,2.364,0.0,0.0,0.0,0.0,1,1,0
146,'1',1,1,1,22.067,2.522,0.0,0.0,0.0,0.0,1,1,0
147,'1',1,1,1,22.809,3.192,0.0,0.0,0.0,0.0,1,1,0
148,'1',1,1,1,28.321,12.338,0.0,0.0,0.0,0.0,1,1,0
148,'2',1,1,1,5.961,0.258,0.0,0.0,0.0,0.0,1,1,0
150,'1',1,1,1,38.468,12.282,0.0,0.0,0.0,0.0,1,1,0
151,'1',1,1,1,24.16,1.836,0.0,0.0,0.0,0.0,1,1,0
151,'2',1,1,1,1.72,0.433,0.0,0.0,0.0,0.0,1,1,0
152,'1',1,1,1,24.46,4.513,0.0,0.0,0.0,0.0,1,1,0
154,'1',1,1,1,16.88,4.139,0.0,0.0,0.0,0.0,1,1,0
154,'2',1,1,1,15.806,4.221,0.0,0.0,0.0,0.0,1,1,0
156,'1',1,1,1,17.364,2.547,0.0,0.0,0.0,0.0,1,1,0
157,'1',1,1,1,35.77,7.116,0.0,0.0,0.0,0.0,1,1,0
158,'1',1,1,1,47.8,10.429,0.0,0.0,0.0,0.0,1,1,0
159,'1',1,1,1,33.317,1.977,0.0,0.0,0.0,0.0,1,1,0
160,'1',1,1,1,44.577,0.649,0.0,0.0,0.0,0.0,1,1,0
161,'1',1,1,1,40.79,16.921,0.0,0.0,0.0,0.0,1,1,0
163,'1',1,1,1,20.28,5.97,0.0,0.0,0.0,0.0,1,1,0
164,'1',1,1,1,16.317,1.055,0.0,0.0,0.0,0.0,1,1,0
167,'1',1,1,1,21.997,2.256,0.0,0.0,0.0,0.0,1,1,0
169,'1',1,1,1,17.1,6.66,0.0,0.0,0.0,0.0,1,1,0
171,'1',1,1,1,13.839,4.343,0.0,0.0,0.0,0.0,1,1,0
171,'2',1,1,1,1.986,0.167,0.0,0.0,0.0,0.0,1,1,0
172,'1',1,1,1,15.08,3.155,0.0,0.0,0.0,0.0,1,1,0
173,'1',1,1,1,8.67,0.54,0.0,0.0,0.0,0.0,1,1,0
176,'1',1,1,1,10.999,4.23,0.0,0.0,0.0,0.0,1,1,0
179,'1',1,1,1,11.502,2.001,0.0,0.0,0.0,0.0,1,1,0
180,'1',1,1,1,5.57,0.744,0.0,0.0,0.0,0.0,1,1,0
181,'1',1,1,1,13.38,3.135,0.0,0.0,0.0,0.0,1,1,0
182,'1',1,1,1,5.28,0.945,0.0,0.0,0.0,0.0,1,1,0
183,'1',1,1,1,15.06,5.079,0.0,0.0,0.0,0.0,1,1,0
184,'1',1,1,1,7.72,1.484,0.0,0.0,0.0,0.0,1,1,0
185,'1',1,1,1,20.652,6.024,0.0,0.0,0.0,0.0,1,1,0
187,'1',1,1,1,13.243,2.358,0.0,0.0,0.0,0.0,1,1,0
187,'2',1,1,1,9.397,0.961,0.0,0.0,0.0,0.0,1,1,0
189,'1',1,1,1,18.95,1.114,0.0,0.0,0.0,0.0,1,1,0
189,'2',1,1,1,18.39,1.605,0.0,0.0,0.0,0.0,1,1,0
190,'1',1,1,1,15.924,2.773,0.0,0.0,0.0,0.0,1,1,0
190,'2',1,1,1,10.98,2.772,0.0,0.0,0.0,0.0,1,1,0
191,'1',1,1,1,11.01,3.519,0.0,0.0,0.0,0.0,1,1,0
191,'2',1,1,1,11.01,2.166,0.0,0.0,0.0,0.0,1,1,0
192,'1',1,1,1,8.42,0.315,0.0,0.0,0.0,0.0,1,1,0
193,'1',1,1,1,10.912,5.394,0.0,0.0,0.0,0.0,1,1,0
194,'1',1,1,1,36.86,10.646,0.0,0.0,0.0,0.0,1,1,0
195,'1',1,1,1,30.34,4.914,0.0,0.0,0.0,0.0,1,1,0
197,'1',1,1,1,10.873,3.314,0.0,0.0,0.0,0.0,1,1,0
198,'1',1,1,1,9.858,3.565,0.0,0.0,0.0,0.0,1,1,0
199,'1',1,1,1,16.346,2.911,0.0,0.0,0.0,0.0,1,1,0
200,'1',1,1,1,16.43,5.027,0.0,0.0,0.0,0.0,1,1,0
200,'2',1,1,1,8.298,0.045,0.0,0.0,0.0,0.0,1,1,0
203,'1',1,1,1,25.71,11.79,0.0,0.0,0.0,0.0,1,1,0
203,'2',1,1,1,4.436,0.706,0.0,0.0,0.0,0.0,1,1,0
204,'1',1,1,1,21.16,6.481,0.0,0.0,0.0,0.0,1,1,0
205,'1',1,1,1,20.57,3.312,0.0,0.0,0.0,0.0,1,1,0
206,'1',1,1,1,22.895,3.78,0.0,0.0,0.0,0.0,1,1,0
207,'1',1,1,1,47.91,14.659,0.0,0.0,0.0,0.0,1,1,0
208,'1',1,1,1,14.6,2.611,0.0,0.0,0.0,0.0,1,1,0
210,'1',1,1,1,43.348,16.023,0.0,0.0,0.0,0.0,1,1,0
212,'1',1,1,1,59.413,1.054,0.0,0.0,0.0,0.0,1,1,0
213,'1',1,1,1,42.48,2.73,0.0,0.0,0.0,0.0,1,1,0
214,'1',1,1,1,3.868,0.747,0.0,0.0,0.0,0.0,1,1,0
214,'2',1,1,1,5.041,0.145,0.0,0.0,0.0,0.0,1,1,0
218,'1',1,1,1,33.178,3.924,0.0,0.0,0.0,0.0,1,1,0
219,'1',1,1,1,13.161,0.468,0.0,0.0,0.0,0.0,1,1,0
219,'2',1,1,1,5.798,0.796,0.0,0.0,0.0,0.0,1,1,0
220,'1',1,1,1,14.06,2.484,0.0,0.0,0.0,0.0,1,1,0
221,'1',1,1,1,33.27,12.619,0.0,0.0,0.0,0.0,1,1,0
222,'1',1,1,1,19.906,2.466,0.0,0.0,0.0,0.0,1,1,0
224,'1',1,1,1,21.24,2.536,0.0,0.0,0.0,0.0,1,1,0
226,'1',1,1,1,21.5,5.264,0.0,0.0,0.0,0.0,1,1,0
226,'2',1,1,1,10.698,7.931,0.0,0.0,0.0,0.0,1,1,0
228,'1',1,1,1,23.456,4.913,0.0,0.0,0.0,0.0,1,1,0
228,'2',1,1,1,18.811,5.147,0.0,0.0,0.0,0.0,1,1,0
229,'1',1,1,1,49.6,18.675,0.0,0.0,0.0,0.0,1,1,0
232,'1',1,1,1,67.761,43.873,0.0,0.0,0.0,0.0,1,1,0
236,'1',1,1,1,67.322,15.183,0.0,0.0,0.0,0.0,1,1,0
237,'1',1,1,1,22.12,7.366,0.0,0.0,0.0,0.0,1,1,0
238,'1',1,1,1,46.939,16.106,0.0,0.0,0.0,0.0,1,1,0
239,'1',1,1,1,22.12,5.062,0.0,0.0,0.0,0.0,1,1,0
240,'1',1,1,1,4.297,1.255,0.0,0.0,0.0,0.0,1,1,0
240,'2',1,1,1,3.01,0.252,0.0,0.0,0.0,0.0,1,1,0
241,'1',1,1,1,12.486,2.721,0.0,0.0,0.0,0.0,1,1,0
241,'2',1,1,1,7.109,1.549,0.0,0.0,0.0,0.0,1,1,0
242,'1',1,1,1,50.205,9.331,0.0,0.0,0.0,0.0,1,1,0
243,'1',1,1,1,43.983,15.835,0.0,0.0,0.0,0.0,1,1,0
244,'1',1,1,1,19.451,4.631,0.0,0.0,0.0,0.0,1,1,0
245,'1',1,1,1,29.99,8.821,0.0,0.0,0.0,0.0,1,1,0
246,'1',1,1,1,50.55,11.295,0.0,0.0,0.0,0.0,1,1,0
247,'1',1,1,1,9.757,4.358,0.0,0.0,0.0,0.0,1,1,0
...
0 / END OF LOAD DATA BEGIN FIXED SHUNT DATA
0 / END OF FIXED SHUNT DATA BEGIN GENERATOR DATA
476,'1',454.19,27.432,431.0,-258.6,1.05,473,1109.88,0.0,1.0,0.0,0.0,1.0,1,100.0,656.68,454.19,1,1.0,0,1.0,0,1.0,0,1.0,0,1.0
477,'1',230.89,27.432,431.0,-258.6,1.05,473,1109.88,0.0,1.0,0.0,0.0,1.0,1,100.0,656.68,230.89,1,1.0,0,1.0,0,1.0,0,1.0,0,1.0
481,'1',70.02,-1.54,94.84,-66.388,1.04,0,223.6,0.0,1.0,0.0,0.0,1.0,1,100.0,132.29,70.02,1,1.0,0,1.0,0,1.0,0,1.0,0,1.0
482,'1',30.21,94.84,94.84,-56.904,1.048,478,223.6,0.0,1.0,0.0,0.0,1.0,1,100.0,132.29,30.21,1,1.0,0,1.0,0,1.0,0,1.0,0,1.0
483,'1',60.25,94.84,94.84,-56.904,1.048,478,223.6,0.0,1.0,0.0,0.0,1.0,1,100.0,132.29,60.25,1,1.0,0,1.0,0,1.0,0,1.0,0,1.0
487,'1',118.281,98.75,98.75,-59.25,1.046,484,232.8,0.0,1.0,0.0,0.0,1.0,1,100.0,137.74,96.35,1,1.0,0,1.0,0,1.0,0,1.0,0,1.0
488,'1',118.281,98.75,98.75,-59.25,1.046,484,232.8,0.0,1.0,0.0,0.0,1.0,1,100.0,137.74,65.16,1,1.0,0,1.0,0,1.0,0,1.0,0,1.0
493,'1',143.236,46.439,119.58,-71.748,1.053,490,281.91,0.0,1.0,0.0,0.0,1.0,1,100.0,166.8,69.49,1,1.0,0,1.0,0,1.0,0,1.0,0,1.0
494,'1',143.236,46.439,119.58,-71.748,1.053,490,281.91,0.0,1.0,0.0,0.0,1.0,1,100.0,166.8,87.1,1,1.0,0,1.0,0,1.0,0,1.0,0,1.0
495,'1',143.236,46.439,119.58,-71.748,1.053,490,281.91,0.0,1.0,0.0,0.0,1.0,1,100.0,166.8,94.07,1,1.0,0,1.0,0,1.0,0,1.0,0,1.0
496,'1',143.236,46.439,119.58,-71.748,1.053,490,281.91,0.0,1.0,0.0,0.0,1.0,1,100.0,166.8,75.5,1,1.0,0,1.0,0,1.0,0,1.0,0,1.0
500,'1',129.922,-36.626,108.42,-75.894,1.04,0,255.6,0.0,1.0,0.0,0.0,1.0,1,100.0,151.23,41.0,1,1.0,0,1.0,0,1.0,0,1.0,0,1.0
501,'1',129.866,102.107,108.42,-65.052,1.046,497,255.6,0.0,1.0,0.0,0.0,1.0,1,100.0,151.23,32.83,1,1.0,0,1.0,0,1.0,0,1.0,0,1.0
502,'1',129.866,-47.308,108.42,-75.894,1.04,0,255.6,0.0,1.0,0.0,0.0,1.0,1,100.0,151.23,55.54,1,1.0,0,1.0,0,1.0,0,1.0,0,1.0
507,'1',165.468,104.425,138.14,-96.698,1.042,504,325.68,0.0,1.0,0.0,0.0,1.0,1,100.0,192.69,85.62,1,1.0,0,1.0,0,1.0,0,1.0,0,1.0
508,'1',92.54,104.425,138.14,-96.698,1.042,504,325.68,0.0,1.0,0.0,0.0,1.0,1,100.0,192.69,92.54,1,1.0,0,1.0,0,1.0,0,1.0,0,1.0
509,'1',341.276,-38.959,102.881,-102.881,1.04,0,18.0,0.0,1.0,0.0,0.0,1.0,1,100.0,342.938,0.0,1,1.0,0,1.0,0,1.0,0,1.0,0,1.0
510,'1',5.59,-1.309,90.466,-90.466,1.04,0,21.96,0.0,1.0,0.0,0.0,1.0,1,100.0,301.552,0.0,1,1.0,0,1.0,0,1.0,0,1.0,0,1.0
510,'2',127.015,-1.309,63.989,-63.989,1.04,0,21.96,0.0,1.0,0.0,0.0,1.0,1,100.0,213.298,0.0,1,1.0,0,1.0,0,1.0,0,1.0,0,1.0
510,'3',338.673,-1.309,102.21,-102.21,1.04,0,21.96,0.0,1.0,0.0,0.0,1.0,1,100.0,340.7,0.0,1,1.0,0,1.0,0,1.0,0,1.0,0,1.0
513,'1',15.645,5.89,5.89,-5.89,1.04,0,43.2,0.0,1.0,0.0,0.0,1.0,1,100.0,19.633,0.0,1,1.0,0,1.0,0,1.0,0,1.0,0,1.0
513,'2',21.949,7.668,7.668,-7.668,1.04,0,43.2,0.0,1.0,0.0,0.0,1.0,1,100.0,25.56,0.0,1,1.0,0,1.0,0,1.0,0,1.0,0,1.0
514,'1',14.821,5.643,5.643,-5.643,1.04,0,43.2,0.0,1.0,0.0,0.0,1.0,1,100.0,18.809,0.0,1,1.0,0,1.0,0,1.0,0,1.0,0,1.0
515,'1',4.873,1.761,1.761,-1.761,1.04,0,10.8,0.0,1.0,0.0,0.0,1.0,1,100.0,5.87,0.0,1,1.0,0,1.0,0,1.0,0,1.0,0,1.0
515,'2',3.053,1.215,1.215,-1.215,1.04,0,10.8,0.0,1.0,0.0,0.0,1.0,1,100.0,4.05,0.0,1,1.0,0,1.0,0,1.0,0,1.0,0,1.0
520,'1',125.735,-36.765,104.97,-73.479,1.04,0,247.48,0.0,1.0,0.0,0.0,1.0,1,100.0,146.42,75.93,1,1.0,0,1.0,0,1.0,0,1.0,0,1.0
521,'1',125.735,104.97,104.97,-73.479,1.046,517,247.48,0.0,1.0,0.0,0.0,1.0,1,100.0,146.42,99.39,1,1.0,0,1.0,0,1.0,0,1.0,0,1.0
522,'1',125.735,104.97,104.97,-73.479,1.046,517,247.48,0.0,1.0,0.0,0.0,1.0,1,100.0,146.42,71.07,1,1.0,0,1.0,0,1.0,0,1.0,0,1.0
523,'1',31.334,26.16,26.16,-18.312,1.04,0,61.68,0.0,1.0,0.0,0.0,1.0,1,100.0,36.49,20.44,1,1.0,0,1.0,0,1.0,0,1.0,0,1.0
523,'2',31.334,26.16,26.16,-18.312,1.04,0,61.68,0.0,1.0,0.0,0.0,1.0,1,100.0,36.49,5.59,1,1.0,0,1.0,0,1.0,0,1.0,0,1.0
523,'3',31.334,26.16,26.16,-18.312,1.04,0,61.68,0.0,1.0,0.0,0.0,1.0,1,100.0,36.49,15.43,1,1.0,0,1.0,0,1.0,0,1.0,0,1.0
523,'4',31.334,26.16,26.16,-18.312,1.04,0,61.68,0.0,1.0,0.0,0.0,1.0,1,100.0,36.49,13.1,1,1.0,0,1.0,0,1.0,0,1.0,0,1.0
523,'5',31.334,26.16,26.16,-18.312,1.04,0,61.68,0.0,1.0,0.0,0.0,1.0,1,100.0,36.49,21.71,1,1.0,0,1.0,0,1.0,0,1.0,0,1.0
523,'6',31.334,26.16,26.16,-18.312,1.04,0,61.68,0.0,1.0,0.0,0.0,1.0,1,100.0,36.49,10.5,1,1.0,0,1.0,0,1.0,0,1.0,0,1.0
527,'1',163.236,105.09,136.28,-95.396,1.05,524,321.28,0.0,1.0,0.0,0.0,1.0,1,100.0,190.09,41.46,1,1.0,0,1.0,0,1.0,0,1.0,0,1.0
528,'1',163.236,105.09,136.28,-95.396,1.05,524,321.28,0.0,1.0,0.0,0.0,1.0,1,100.0,190.09,77.16,1,1.0,0,1.0,0,1.0,0,1.0,0,1.0
529,'1',163.236,105.09,136.28,-95.396,1.05,524,321.28,0.0,1.0,0.0,0.0,1.0,1,100.0,190.09,95.47,1,1.0,0,1.0,0,1.0,0,1.0,0,1.0
531,'1',10.185,-5.95,8.5,-5.95,1.04,0,20.04,0.0,1.0,0.0,0.0,1.0,1,100.0,11.86,4.98,1,1.0,0,1.0,0,1.0,0,1.0,0,1.0
533,'1',10.185,-5.95,8.5,-5.95,1.04,0,20.04,0.0,1.0,0.0,0.0,1.0,1,100.0,11.86,8.28,1,1.0,0,1.0,0,1.0,0,1.0,0,1.0
533,'2',10.185,-5.95,8.5,-5.95,1.04,0,20.04,0.0,1.0,0.0,0.0,1.0,1,100.0,11.86,6.63,1,1.0,0,1.0,0,1.0,0,1.0,0,1.0
533,'3',13.413,-7.84,11.2,-7.84,1.04,0,26.4,0.0,1.0,0.0,0.0,1.0,1,100.0,15.62,7.83,1,1.0,0,1.0,0,1.0,0,1.0,0,1.0
536,'1',0.91,0.76,0.76,-0.532,1.04,535,100.0,0.0,1.0,0.0,0.0,1.0,1,100.0,1.06,0.16,1,1.0,0,1.0,0,1.0,0,1.0,0,1.0
536,'2',3.658,3.05,3.05,-2.135,1.04,535,100.0,0.0,1.0,0.0,0.0,1.0,1,100.0,4.26,2.82,1,1.0,0,1.0,0,1.0,0,1.0,0,1.0
537,'1',1.399,1.17,1.17,-0.819,1.04,0,2.76,0.0,1.0,0.0,0.0,1.0,1,100.0,1.63,0.75,1,1.0,0,1.0,0,1.0,0,1.0,0,1.0
537,'2',2.809,2.34,2.34,-1.638,1.04,0,5.52,0.0,1.0,0.0,0.0,1.0,1,100.0,3.27,1.21,1,1.0,0,1.0,0,1.0,0,1.0,0,1.0
537,'7',15.5,12.94,12.94,-9.058,1.04,0,30.5,0.0,1.0,0.0,0.0,1.0,1,100.0,18.05,4.65,1,1.0,0,1.0,0,1.0,0,1.0,0,1.0
538,'3',3.658,3.05,3.05,-2.135,1.04,537,100.0,0.0,1.0,0.0,0.0,1.0,1,100.0,4.26,1.79,1,1.0,0,1.0,0,1.0,0,1.0,0,1.0
538,'4',15.5,12.94,12.94,-9.058,1.04,537,100.0,0.0,1.0,0.0,0.0,1.0,1,100.0,18.05,3.9,1,1.0,0,1.0,0,1.0,0,1.0,0,1.0
538,'5',15.5,12.94,12.94,-9.058,1.04,537,100.0,0.0,1.0,0.0,0.0,1.0,1,100.0,18.05,11.14,1,1.0,0,1.0,0,1.0,0,1.0,0,1.0
538,'6',15.5,12.94,12.94,-9.058,1.04,537,100.0,0.0,1.0,0.0,0.0,1.0,1,100.0,18.05,4.53,1,1.0,0,1.0,0,1.0,0,1.0,0,1.0
538,'8',15.5,12.94,12.94,-9.058,1.04,537,100.0,0.0,1.0,0.0,0.0,1.0,1,100.0,18.05,4.12,1,1.0,0,1.0,0,1.0,0,1.0,0,1.0
538,'9',15.5,12.94,12.94,-9.058,1.04,537,100.0,0.0,1.0,0.0,0.0,1.0,1,100.0,18.05,3.18,1,1.0,0,1.0,0,1.0,0,1.0,0,1.0
542,'1',221.32,138.197,184.77,-129.339,1.034,540,435.6,0.0,1.0,0.0,0.0,1.0,1,100.0,257.73,81.68,1,1.0,0,1.0,0,1.0,0,1.0,0,1.0
543,'1',221.32,138.197,184.77,-129.339,1.034,540,435.6,0.0,1.0,0.0,0.0,1.0,1,100.0,257.73,155.03,1,1.0,0,1.0,0,1.0,0,1.0,0,1.0
544,'1',29.935,23.284,24.99,-17.493,1.04,0,58.92,0.0,1.0,0.0,0.0,1.0,1,100.0,34.86,20.93,1,1.0,0,1.0,0,1.0,0,1.0,0,1.0
544,'2',29.935,23.284,24.99,-17.493,1.04,0,58.92,0.0,1.0,0.0,0.0,1.0,1,100.0,34.86,20.35,1,1.0,0,1.0,0,1.0,0,1.0,0,1.0
548,'1',215.89,-22.653,276.52,-165.912,1.046,545,712.08,0.0,1.0,0.0,0.0,1.0,1,100.0,421.31,215.89,1,1.0,0,1.0,0,1.0,0,1.0,0,1.0
549,'1',265.82,-22.653,276.52,-165.912,1.046,545,712.08,0.0,1.0,0.0,0.0,1.0,1,100.0,421.31,265.82,1,1.0,0,1.0,0,1.0,0,1.0,0,1.0
554,'1',64.018,-35.612,53.44,-37.408,1.04,0,126.0,0.0,1.0,0.0,0.0,1.0,1,100.0,74.55,44.25,1,1.0,0,1.0,0,1.0,0,1.0,0,1.0
559,'1',123.53,92.404,211.33,-126.798,1.053,556,544.2,0.0,1.0,0.0,0.0,1.0,1,100.0,321.99,123.53,1,1.0,0,1.0,0,1.0,0,1.0,0,1.0
561,'1',5.571,2.366,2.366,-2.366,1.04,0,25.08,0.0,1.0,0.0,0.0,1.0,1,100.0,7.887,0.0,1,1.0,0,1.0,0,1.0,0,1.0,0,1.0
562,'2',12.744,4.449,4.449,-4.449,1.04,561,100.0,0.0,1.0,0.0,0.0,1.0,1,100.0,14.831,0.0,1,1.0,0,1.0,0,1.0,0,1.0,0,1.0
566,'1',227.74,119.475,308.26,-184.956,1.048,563,793.8,0.0,1.0,0.0,0.0,1.0,1,100.0,469.67,227.74,1,1.0,0,1.0,0,1.0,0,1.0,0,1.0
567,'1',8.933,3.411,3.411,-3.411,1.04,0,26.4,0.0,1.0,0.0,0.0,1.0,1,100.0,11.37,0.0,1,1.0,0,1.0,0,1.0,0,1.0,0,1.0
568,'1',13.413,4.686,4.686,-4.686,1.04,0,26.4,0.0,1.0,0.0,0.0,1.0,1,100.0,15.62,0.0,1,1.0,0,1.0,0,1.0,0,1.0,0,1.0
573,'1',105.281,87.89,87.89,-61.523,1.045,570,207.2,0.0,1.0,0.0,0.0,1.0,1,100.0,122.6,52.76,1,1.0,0,1.0,0,1.0,0,1.0,0,1.0
574,'1',105.281,-17.228,87.89,-61.523,1.04,0,207.2,0.0,1.0,0.0,0.0,1.0,1,100.0,122.6,39.78,1,1.0,0,1.0,0,1.0,0,1.0,0,1.0
575,'1',105.281,-20.022,87.89,-61.523,1.04,0,207.2,0.0,1.0,0.0,0.0,1.0,1,100.0,122.6,41.51,1,1.0,0,1.0,0,1.0,0,1.0,0,1.0
576,'1',105.281,-16.005,87.89,-61.523,1.04,0,207.2,0.0,1.0,0.0,0.0,1.0,1,100.0,122.6,46.2,1,1.0,0,1.0,0,1.0,0,1.0,0,1.0
577,'1',105.281,-19.185,87.89,-61.523,1.04,0,207.2,0.0,1.0,0.0,0.0,1.0,1,100.0,122.6,37.72,1,1.0,0,1.0,0,1.0,0,1.0,0,1.0
578,'1',105.281,-17.803,87.89,-61.523,1.04,0,207.2,0.0,1.0,0.0,0.0,1.0,1,100.0,122.6,38.43,1,1.0,0,1.0,0,1.0,0,1.0,0,1.0
579,'1',55.29,-18.591,82.15,-57.505,1.04,0,193.68,0.0,1.0,0.0,0.0,1.0,1,100.0,114.59,55.29,1,1.0,0,1.0,0,1.0,0,1.0,0,1.0
579,'2',77.68,-18.591,82.15,-57.505,1.04,0,193.68,0.0,1.0,0.0,0.0,1.0,1,100.0,114.59,77.68,1,1.0,0,1.0,0,1.0,0,1.0,0,1.0
579,'3',73.85,-18.591,82.15,-57.505,1.04,0,193.68,0.0,1.0,0.0,0.0,1.0,1,100.0,114.59,73.85,1,1.0,0,1.0,0,1.0,0,1.0,0,1.0
582,'1',39.009,-55.773,82.15,-57.505,1.04,579,193.68,0.0,1.0,0.0,0.0,1.0,1,100.0,114.59,35.4,1,1.0,0,1.0,0,1.0,0,1.0,0,1.0
583,'1',67.46,-0.278,82.15,-57.505,1.04,0,193.68,0.0,1.0,0.0,0.0,1.0,1,100.0,114.59,67.46,1,1.0,0,1.0,0,1.0,0,1.0,0,1.0
586,'1',31.394,26.21,26.21,-18.347,1.04,0,61.8,0.0,1.0,0.0,0.0,1.0,1,100.0,36.56,5.76,1,1.0,0,1.0,0,1.0,0,1.0,0,1.0
586,'2',31.394,26.21,26.21,-18.347,1.04,0,61.8,0.0,1.0,0.0,0.0,1.0,1,100.0,36.56,17.59,1,1.0,0,1.0,0,1.0,0,1.0,0,1.0
586,'3',31.394,26.21,26.21,-18.347,1.04,0,61.8,0.0,1.0,0.0,0.0,1.0,1,100.0,36.56,7.22,1,1.0,0,1.0,0,1.0,0,1.0,0,1.0
586,'4',31.394,26.21,26.21,-18.347,1.04,0,61.8,0.0,1.0,0.0,0.0,1.0,1,100.0,36.56,6.6,1,1.0,0,1.0,0,1.0,0,1.0,0,1.0
589,'1',96.91,11.366,100.95,-60.57,1.04,0,238.0,0.0,1.0,0.0,0.0,1.0,1,100.0,140.81,96.91,1,1.0,0,1.0,0,1.0,0,1.0,0,1.0
590,'1',33.6,14.618,100.95,-60.57,1.04,0,238.0,0.0,1.0,0.0,0.0,1.0,1,100.0,140.81,33.6,1,1.0,0,1.0,0,1.0,0,1.0,0,1.0
591,'1',76.51,8.972,100.95,-60.57,1.04,0,238.0,0.0,1.0,0.0,0.0,1.0,1,100.0,140.81,76.51,1,1.0,0,1.0,0,1.0,0,1.0,0,1.0
596,'1',79.68,-30.368,81.36,-56.952,1.04,0,209.52,0.0,1.0,0.0,0.0,1.0,1,100.0,123.97,79.68,1,1.0,0,1.0,0,1.0,0,1.0,0,1.0
597,'1',106.457,-35.939,81.36,-56.952,1.04,0,209.52,0.0,1.0,0.0,0.0,1.0,1,100.0,123.97,63.69,1,1.0,0,1.0,0,1.0,0,1.0,0,1.0
598,'1',1.26,0.42,0.42,-0.42,1.04,0,1.68,0.0,1.0,0.0,0.0,1.0,1,100.0,1.4,0.0,1,1.0,0,1.0,0,1.0,0,1.0,0,1.0
598,'2',24.854,8.453,8.453,-8.453,1.04,0,36.0,0.0,1.0,0.0,0.0,1.0,1,100.0,28.178,0.0,1,1.0,0,1.0,0,1.0,0,1.0,0,1.0
603,'1',499.88,327.619,469.73,-281.838,1.052,600,1209.6,0.0,1.0,0.0,0.0,1.0,1,100.0,715.68,499.88,1,1.0,0,1.0,0,1.0,0,1.0,0,1.0
607,'1',313.25,53.896,418.33,-250.998,1.054,604,1077.24,0.0,1.0,0.0,0.0,1.0,1,100.0,637.37,313.25,1,1.0,0,1.0,0,1.0,0,1.0,0,1.0
608,'1',414.13,53.896,418.33,-250.998,1.054,604,1077.24,0.0,1.0,0.0,0.0,1.0,1,100.0,637.37,414.13,1,1.0,0,1.0,0,1.0,0,1.0,0,1.0
612,'1',134.955,1.945,45.0,-45.0,1.04,0,180.0,0.0,1.0,0.0,0.0,1.0,1,100.0,150.0,0.0,1,1.0,0,1.0,0,1.0,0,1.0,1,1.0
615,'1',196.6,-4.07,275.22,-165.132,1.04,614,708.72,0.0,1.0,0.0,0.0,1.0,1,100.0,419.33,196.6,1,1.0,0,1.0,0,1.0,0,1.0,0,1.0
617,'1',10.198,4.057,4.057,-4.057,1.04,0,36.0,0.0,1.0,0.0,0.0,1.0,1,100.0,13.522,0.0,1,1.0,0,1.0,0,1.0,0,1.0,0,1.0
617,'2',15.246,5.571,5.571,-5.571,1.04,0,36.0,0.0,1.0,0.0,0.0,1.0,1,100.0,18.57,0.0,1,1.0,0,1.0,0,1.0,0,1.0,0,1.0
0 / END OF GENERATOR DATA BEGIN BRANCH DATA
1,3,'1',0.00635,0.02695,0.00279,158.2,158.2,158.2,0.0,0.0,0.0,0.0,1,1,5.01,1,1.0,0,1.0,0,1.0,0,1.0
2,1,'1',0.01312,0.05468,0.00337,140.2,140.2,140.2,0.0,0.0,0.0,0.0,1,1,7.97,1,1.0,0,1.0,0,1.0,0,1.0
3,2,'1',0.00728,0.0389,0.00738,129.7,129.7,129.7,0.0,0.0,0.0,0.0,1,1,10.89,1,1.0,0,1.0,0,1.0,0,1.0
3,35,'1',0.01367,0.06535,0.01419,185.9,185.9,185.9,0.0,0.0,0.0,0.0,1,1,16.71,1,1.0,0,1.0,0,1.0,0,1.0
4,5,'1',0.0002,0.00108,0.0,345.0,345.0,345.0,0.0,0.0,0.0,0.0,1,1,0.0,1,1.0,0,1.0,0,1.0,0,1.0
4,11,'1',0.01617,0.07615,0.01015,157.3,157.3,157.3,0.0,0.0,0.0,0.0,1,1,14.52,1,1.0,0,1.0,0,1.0,0,1.0
4,14,'1',0.01126,0.07288,0.01627,169.8,169.8,169.8,0.0,0.0,0.0,0.0,1,1,19.02,1,1.0,0,1.0,0,1.0,0,1.0
6,7,'1',0.00995,0.03066,0.00204,154.9,154.9,154.9,0.0,0.0,0.0,0.0,1,1,5.22,1,1.0,0,1.0,0,1.0,0,1.0
6,23,'1',0.01595,0.06409,0.00674,147.6,147.6,147.6,0.0,0.0,0.0,0.0,1,1,11.2,1,1.0,0,1.0,0,1.0,0,1.0
7,9,'1',0.01027,0.05768,0.00205,168.0,168.0,168.0,0.0,0.0,0.0,0.0,1,1,8.2,1,1.0,0,1.0,0,1.0,0,1.0
8,571,'1',0.00384,0.03054,0.20291,549.3,549.3,549.3,0.0,0.0,0.0,0.0,1,1,40.94,1,1.0,0,1.0,0,1.0,0,1.0
10,1,'1',0.01276,0.0733,0.0096,163.6,163.6,163.6,0.0,0.0,0.0,0.0,1,1,15.25,1,1.0,0,1.0,0,1.0,0,1.0
10,11,'1',0.01727,0.06921,0.00586,175.5,175.5,175.5,0.0,0.0,0.0,0.0,1,1,14.27,1,1.0,0,1.0,0,1.0,0,1.0
11,14,'1',0.00558,0.02717,0.00209,178.6,178.6,178.6,0.0,0.0,0.0,0.0,1,1,4.92,1,1.0,0,1.0,0,1.0,0,1.0
12,570,'1',0.00264,0.02133,0.11905,664.2,664.2,664.2,0.0,0.0,0.0,0.0,1,1,28.06,1,1.0,0,1.0,0,1.0,0,1.0
13,8,'1',0.00336,0.03163,0.03708,488.3,488.3,488.3,0.0,0.0,0.0,0.0,1,1,19.41,1,1.0,0,1.0,0,1.0,0,1.0
13,12,'1',0.0001,0.001,0.0,890.3,890.3,890.3,0.0,0.0,0.0,0.0,1,1,0.0,1,1.0,0,1.0,0,1.0,0,1.0
13,20,'1',0.00665,0.05004,0.16528,627.8,627.8,627.8,0.0,0.0,0.0,0.0,1,1,51.78,1,1.0,0,1.0,0,1.0,0,1.0
16,15,'1',0.02141,0.09305,0.00531,145.8,145.8,145.8,0.0,0.0,0.0,0.0,1,1,12.33,1,1.0,0,1.0,0,1.0,0,1.0
17,18,'1',0.00027,0.00115,0.0,138.0,138.0,138.0,0.0,0.0,0.0,0.0,1,1,0.0,1,1.0,0,1.0,0,1.0,0,1.0
18,29,'1',0.01542,0.06443,0.01744,161.7,161.7,161.7,0.0,0.0,0.0,0.0,1,1,18.88,1,1.0,0,1.0,0,1.0,0,1.0
18,30,'1',0.02132,0.0706,0.00591,146.3,146.3,146.3,0.0,0.0,0.0,0.0,1,1,13.81,1,1.0,0,1.0,0,1.0,0,1.0
19,22,'1',0.00025,0.00113,0.0,1500.0,1500.0,1500.0,0.0,0.0,0.0,0.0,1,1,0.0,1,1.0,0,1.0,0,1.0,0,1.0
20,19,'1',0.0001,0.001,0.0,749.6,749.6,749.6,0.0,0.0,0.0,0.0,1,1,0.0,1,1.0,0,1.0,0,1.0,0,1.0
20,201,'1',0.00743,0.05266,0.19472,650.8,650.8,650.8,0.0,0.0,0.0,0.0,1,1,54.1,1,1.0,0,1.0,0,1.0,0,1.0
22,473,'1',0.00408,0.03423,0.29527,646.8,646.8,646.8,0.0,0.0,0.0,0.0,1,1,57.18,1,1.0,0,1.0,0,1.0,0,1.0
23,26,'1',0.01431,0.06351,0.00506,149.5,149.5,149.5,0.0,0.0,0.0,0.0,1,1,11.71,1,1.0,0,1.0,0,1.0,0,1.0
24,33,'1',0.01503,0.05067,0.0177,162.9,162.9,162.9,0.0,0.0,0.0,0.0,1,1,16.15,1,1.0,0,1.0,0,1.0,0,1.0
24,34,'1',0.01416,0.05672,0.01879,150.3,150.3,150.3,0.0,0.0,0.0,0.0,1,1,18.34,1,1.0,0,1.0,0,1.0,0,1.0
25,34,'1',0.01511,0.06952,0.00593,154.3,154.3,154.3,0.0,0.0,0.0,0.0,1,1,12.67,1,1.0,0,1.0,0,1.0,0,1.0
25,547,'1',0.01161,0.05619,0.00533,162.8,162.8,162.8,0.0,0.0,0.0,0.0,1,1,10.71,1,1.0,0,1.0,0,1.0,0,1.0
26,18,'1',0.02307,0.14347,0.00887,155.3,155.3,155.3,0.0,0.0,0.0,0.0,1,1,19.24,1,1.0,0,1.0,0,1.0,0,1.0
27,15,'1',0.02463,0.09023,0.01262,185.4,185.4,185.4,0.0,0.0,0.0,0.0,1,1,18.08,1,1.0,0,1.0,0,1.0,0,1.0
27,475,'1',0.01914,0.06432,0.0036,188.0,188.0,188.0,0.0,0.0,0.0,0.0,1,1,9.45,1,1.0,0,1.0,0,1.0,0,1.0
28,29,'1',0.00025,0.00103,0.0,345.0,345.0,345.0,0.0,0.0,0.0,0.0,1,1,0.0,1,1.0,0,1.0,0,1.0,0,1.0
29,21,'1',0.01451,0.06831,0.00811,167.8,167.8,167.8,0.0,0.0,0.0,0.0,1,1,12.81,1,1.0,0,1.0,0,1.0,0,1.0
30,31,'1',0.01235,0.05631,0.00785,142.1,142.1,142.1,0.0,0.0,0.0,0.0,1,1,11.25,1,1.0,0,1.0,0,1.0,0,1.0
31,204,'1',0.01844,0.10602,0.01713,141.2,141.2,141.2,0.0,0.0,0.0,0.0,1,1,22.85,1,1.0,0,1.0,0,1.0,0,1.0
32,15,'1',0.00947,0.04816,0.0039,208.5,208.5,208.5,0.0,0.0,0.0,0.0,1,1,9.75,1,1.0,0,1.0,0,1.0,0,1.0
34,468,'1',0.03008,0.13024,0.01634,162.0,162.0,162.0,0.0,0.0,0.0,0.0,1,1,25.29,1,1.0,0,1.0,0,1.0,0,1.0
36,32,'1',0.01342,0.0576,0.02249,199.7,199.7,199.7,0.0,0.0,0.0,0.0,1,1,19.76,1,1.0,0,1.0,0,1.0,0,1.0
36,35,'1',0.0132,0.05853,0.00786,191.3,191.3,191.3,0.0,0.0,0.0,0.0,1,1,11.54,1,1.0,0,1.0,0,1.0,0,1.0
37,122,'1',0.00406,0.04095,0.1376,538.7,538.7,538.7,0.0,0.0,0.0,0.0,1,1,41.51,1,1.0,0,1.0,0,1.0,0,1.0
39,140,'1',0.01632,0.07937,0.00821,138.4,138.4,138.4,0.0,0.0,0.0,0.0,1,1,13.88,1,1.0,0,1.0,0,1.0,0,1.0
40,41,'1',0.00029,0.00113,0.0,345.0,345.0,345.0,0.0,0.0,0.0,0.0,1,1,0.0,1,1.0,0,1.0,0,1.0,0,1.0
40,43,'1',0.00759,0.03916,0.00863,160.5,160.5,160.5,0.0,0.0,0.0,0.0,1,1,10.3,1,1.0,0,1.0,0,1.0,0,1.0
42,43,'1',0.00026,0.00103,0.0,138.0,138.0,138.0,0.0,0.0,0.0,0.0,1,1,0.0,1,1.0,0,1.0,0,1.0,0,1.0
45,40,'1',0.01551,0.05932,0.0125,166.9,166.9,166.9,0.0,0.0,0.0,0.0,1,1,14.58,1,1.0,0,1.0,0,1.0,0,1.0
46,38,'1',0.03387,0.15112,0.02066,153.0,153.0,153.0,0.0,0.0,0.0,0.0,1,1,29.13,1,1.0,0,1.0,0,1.0,0,1.0
46,48,'1',0.00601,0.02566,0.01633,146.0,146.0,146.0,0.0,0.0,0.0,0.0,1,1,13.21,1,1.0,0,1.0,0,1.0,0,1.0
47,37,'1',0.00723,0.05839,0.0884,485.1,485.1,485.1,0.0,0.0,0.0,0.0,1,1,39.97,1,1.0,0,1.0,0,1.0,0,1.0
48,45,'1',0.01959,0.08775,0.01378,172.8,172.8,172.8,0.0,0.0,0.0,0.0,1,1,19.08,1,1.0,0,1.0,0,1.0,0,1.0
48,49,'1',0.02146,0.11918,0.01618,141.0,141.0,141.0,0.0,0.0,0.0,0.0,1,1,24.75,1,1.0,0,1.0,0,1.0,0,1.0
49,50,'1',0.00027,0.00119,0.0,138.0,138.0,138.0,0.0,0.0,0.0,0.0,1,1,0.0,1,1.0,0,1.0,0,1.0,0,1.0
51,44,'1',0.02267,0.10894,0.01316,131.1,131.1,131.1,0.0,0.0,0.0,0.0,1,1,19.98,1,1.0,0,1.0,0,1.0,0,1.0
51,170,'1',0.02426,0.0917,0.00882,130.2,130.2,130.2,0.0,0.0,0.0,0.0,1,1,14.58,1,1.0,0,1.0,0,1.0,0,1.0
52,53,'1',0.00029,0.00109,0.0,345.0,345.0,345.0,0.0,0.0,0.0,0.0,1,1,0.0,1,1.0,0,1.0,0,1.0,0,1.0
52,55,'1',0.00629,0.02698,0.0042,131.9,131.9,131.9,0.0,0.0,0.0,0.0,1,1,7.28,1,1.0,0,1.0,0,1.0,0,1.0
52,110,'1',0.00679,0.03422,0.01324,159.2,159.2,159.2,0.0,0.0,0.0,0.0,1,1,11.84,1,1.0,0,1.0,0,1.0,0,1.0
54,55,'1',0.0098,0.0467,0.00332,142.9,142.9,142.9,0.0,0.0,0.0,0.0,1,1,9.0,1,1.0,0,1.0,0,1.0,0,1.0
55,56,'1',0.00028,0.00117,0.0,138.0,138.0,138.0,0.0,0.0,0.0,0.0,1,1,0.0,1,1.0,0,1.0,0,1.0,0,1.0
57,61,'1',0.00511,0.02077,0.00132,132.8,132.8,132.8,0.0,0.0,0.0,0.0,1,1,3.51,1,1.0,0,1.0,0,1.0,0,1.0
58,57,'1',0.00356,0.0171,0.00131,130.9,130.9,130.9,0.0,0.0,0.0,0.0,1,1,3.36,1,1.0,0,1.0,0,1.0,0,1.0
58,61,'1',0.00679,0.02648,0.00278,135.6,135.6,135.6,0.0,0.0,0.0,0.0,1,1,5.64,1,1.0,0,1.0,0,1.0,0,1.0
59,60,'1',0.00025,0.00112,0.0,138.0,138.0,138.0,0.0,0.0,0.0,0.0,1,1,0.0,1,1.0,0,1.0,0,1.0,0,1.0
59,85,'1',0.00798,0.0323,0.00501,159.9,159.9,159.9,0.0,0.0,0.0,0.0,1,1,7.89,1,1.0,0,1.0,0,1.0,0,1.0
62,64,'1',0.00811,0.03542,0.00462,183.2,183.2,183.2,0.0,0.0,0.0,0.0,1,1,6.52,1,1.0,0,1.0,0,1.0,0,1.0
62,67,'1',0.00468,0.015,0.0016,181.4,181.4,181.4,0.0,0.0,0.0,0.0,1,1,3.4,1,1.0,0,1.0,0,1.0,0,1.0
63,65,'1',0.00224,0.01997,0.01849,623.5,623.5,623.5,0.0,0.0,0.0,0.0,1,1,13.15,1,1.0,0,1.0,0,1.0,0,1.0
65,530,'1',0.00224,0.01667,0.012,627.6,627.6,627.6,0.0,0.0,0.0,0.0,1,1,9.52,1,1.0,0,1.0,0,1.0,0,1.0
66,61,'1',0.00458,0.02094,0.00227,172.6,172.6,172.6,0.0,0.0,0.0,0.0,1,1,3.8,1,1.0,0,1.0,0,1.0,0,1.0
67,66,'1',0.00674,0.02888,0.00148,187.8,187.8,187.8,0.0,0.0,0.0,0.0,1,1,4.26,1,1.0,0,1.0,0,1.0,0,1.0
68,73,'1',0.04686,0.19537,0.02223,191.8,191.8,191.8,0.0,0.0,0.0,0.0,1,1,35.21,1,1.0,0,1.0,0,1.0,0,1.0
68,471,'1',0.01262,0.0545,0.02169,177.0,177.0,177.0,0.0,0.0,0.0,0.0,1,1,19.02,1,1.0,0,1.0,0,1.0,0,1.0
68,472,'1',0.03847,0.19361,0.01836,155.9,155.9,155.9,0.0,0.0,0.0,0.0,1,1,32.49,1,1.0,0,1.0,0,1.0,0,1.0
70,69,'1',0.01291,0.05157,0.01061,156.2,156.2,156.2,0.0,0.0,0.0,0.0,1,1,12.89,1,1.0,0,1.0,0,1.0,0,1.0
71,84,'1',0.00429,0.03775,0.07263,484.9,484.9,484.9,0.0,0.0,0.0,0.0,1,1,27.38,1,1.0,0,1.0,0,1.0,0,1.0
72,69,'1',0.01072,0.03788,0.00373,160.4,160.4,160.4,0.0,0.0,0.0,0.0,1,1,7.78,1,1.0,0,1.0,0,1.0,0,1.0
74,110,'1',0.01262,0.05479,0.03614,197.9,197.9,197.9,0.0,0.0,0.0,0.0,1,1,24.29,1,1.0,0,1.0,0,1.0,0,1.0
74,330,'1',0.00716,0.02949,0.022,194.8,194.8,194.8,0.0,0.0,0.0,0.0,1,1,14.41,1,1.0,0,1.0,0,1.0,0,1.0
75,76,'1',0.00662,0.0249,0.00669,176.3,176.3,176.3,0.0,0.0,0.0,0.0,1,1,9.05,1,1.0,0,1.0,0,1.0,0,1.0
76,102,'1',0.02281,0.09822,0.01169,156.8,156.8,156.8,0.0,0.0,0.0,0.0,1,1,17.96,1,1.0,0,1.0,0,1.0,0,1.0
77,88,'1',0.00508,0.02199,0.00243,170.6,170.6,170.6,0.0,0.0,0.0,0.0,1,1,4.71,1,1.0,0,1.0,0,1.0,0,1.0
77,93,'1',0.00705,0.03549,0.00287,187.8,187.8,187.8,0.0,0.0,0.0,0.0,1,1,6.37,1,1.0,0,1.0,0,1.0,0,1.0
78,100,'1',0.01593,0.05231,0.00282,179.6,179.6,179.6,0.0,0.0,0.0,0.0,1,1,7.74,1,1.0,0,1.0,0,1.0,0,1.0
79,82,'1',0.00244,0.01243,0.00098,152.5,152.5,152.5,0.0,0.0,0.0,0.0,1,1,2.52,1,1.0,0,1.0,0,1.0,0,1.0
79,92,'1',0.00237,0.00812,0.0026,135.2,135.2,135.2,0.0,0.0,0.0,0.0,1,1,2.77,1,1.0,0,1.0,0,1.0,0,1.0
80,81,'1',0.00268,0.01263,0.00258,140.0,140.0,140.0,0.0,0.0,0.0,0.0,1,1,3.88,1,1.0,0,1.0,0,1.0,0,1.0
80,100,'1',0.00842,0.03095,0.0016,151.8,151.8,151.8,0.0,0.0,0.0,0.0,1,1,4.49,1,1.0,0,1.0,0,1.0,0,1.0
81,349,'1',0.02419,0.12919,0.01102,159.9,159.9,159.9,0.0,0.0,0.0,0.0,1,1,19.4,1,1.0,0,1.0,0,1.0,0,1.0
82,88,'1',0.0063,0.02539,0.00136,179.7,179.7,179.7,0.0,0.0,0.0,0.0,1,1,4.07,1,1.0,0,1.0,0,1.0,0,1.0
83,524,'1',0.00174,0.01353,0.08827,450.0,450.0,450.0,0.0,0.0,0.0,0.0,1,1,20.16,1,1.0,0,1.0,0,1.0,0,1.0
84,63,'1',0.00159,0.01303,0.05518,572.4,572.4,572.4,0.0,0.0,0.0,0.0,1,1,14.14,1,1.0,0,1.0,0,1.0,0,1.0
84,83,'1',0.0001,0.001,0.0,976.9,976.9,976.9,0.0,0.0,0.0,0.0,1,1,0.0,1,1.0,0,1.0,0,1.0,0,1.0
84,98,'1',0.00269,0.02403,0.03053,567.0,567.0,567.0,0.0,0.0,0.0,0.0,1,1,14.77,1,1.0,0,1.0,0,1.0,0,1.0
85,86,'1',0.0,0.001,0.0,138.0,138.0,138.0,0.0,0.0,0.0,0.0,1,1,0.0,1,1.0,0,1.0,0,1.0,0,1.0
86,59,'1',0.00798,0.0323,0.0,159.9,159.9,159.9,0.0,0.0,0.0,0.0,1,1,0.0,1,1.0,0,1.0,0,1.0,0,1.0
87,59,'1',0.01058,0.04542,0.00325,164.1,164.1,164.1,0.0,0.0,0.0,0.0,1,1,7.53,1,1.0,0,1.0,0,1.0,0,1.0
88,95,'1',0.00271,0.01301,0.02426,196.1,196.1,196.1,0.0,0.0,0.0,0.0,1,1,11.28,1,1.0,0,1.0,0,1.0,0,1.0
89,78,'1',0.00386,0.02052,0.00269,175.0,175.0,175.0,0.0,0.0,0.0,0.0,1,1,4.38,1,1.0,0,1.0,0,1.0,0,1.0
89,90,'1',0.00025,0.00117,0.0,345.0,345.0,345.0,0.0,0.0,0.0,0.0,1,1,0.0,1,1.0,0,1.0,0,1.0,0,1.0
89,92,'1',0.00615,0.02921,0.00197,166.3,166.3,166.3,0.0,0.0,0.0,0.0,1,1,5.2,1,1.0,0,1.0,0,1.0,0,1.0
91,92,'1',0.00028,0.00111,0.0,345.0,345.0,345.0,0.0,0.0,0.0,0.0,1,1,0.0,1,1.0,0,1.0,0,1.0,0,1.0
92,82,'1',0.00641,0.02942,0.00179,137.8,137.8,137.8,0.0,0.0,0.0,0.0,1,1,4.7,1,1.0,0,1.0,0,1.0,0,1.0
93,62,'1',0.00315,0.01468,0.00485,204.8,204.8,204.8,0.0,0.0,0.0,0.0,1,1,5.66,1,1.0,0,1.0,0,1.0,0,1.0
94,81,'1',0.00419,0.01847,0.00357,139.0,139.0,139.0,0.0,0.0,0.0,0.0,1,1,4.58,1,1.0,0,1.0,0,1.0,0,1.0
94,97,'1',0.00562,0.02693,0.00284,140.9,140.9,140.9,0.0,0.0,0.0,0.0,1,1,5.65,1,1.0,0,1.0,0,1.0,0,1.0
95,97,'1',0.00629,0.02576,0.00268,151.3,151.3,151.3,0.0,0.0,0.0,0.0,1,1,5.57,1,1.0,0,1.0,0,1.0,0,1.0
96,97,'1',0.00029,0.00102,0.0,138.0,138.0,138.0,0.0,0.0,0.0,0.0,1,1,0.0,1,1.0,0,1.0,0,1.0,0,1.0
97,75,'1',0.00878,0.04723,0.0039,172.9,172.9,172.9,0.0,0.0,0.0,0.0,1,1,7.88,1,1.0,0,1.0,0,1.0,0,1.0
98,99,'1',0.0,0.001,0.0,690.0,690.0,690.0,0.0,0.0,0.0,0.0,1,1,0.0,1,1.0,0,1.0,0,1.0,0,1.0
98,101,'1',0.00021,0.00107,0.0,368.0,368.0,368.0,0.0,0.0,0.0,0.0,1,1,0.0,1,1.0,0,1.0,0,1.0,0,1.0
100,95,'1',0.00302,0.01382,0.00118,184.5,184.5,184.5,0.0,0.0,0.0,0.0,1,1,2.71,1,1.0,0,1.0,0,1.0,0,1.0
103,98,'1',0.00297,0.03001,0.11778,532.9,532.9,532.9,0.0,0.0,0.0,0.0,1,1,32.53,1,1.0,0,1.0,0,1.0,0,1.0
103,512,'1',0.00416,0.03757,0.08796,587.2,587.2,587.2,0.0,0.0,0.0,0.0,1,1,32.09,1,1.0,0,1.0,0,1.0,0,1.0
103,613,'1',0.00392,0.03887,0.04656,529.0,529.0,529.0,0.0,0.0,0.0,0.0,1,1,24.27,1,1.0,0,1.0,0,1.0,0,1.0
104,102,'1',0.00675,0.03017,0.00294,160.6,160.6,160.6,0.0,0.0,0.0,0.0,1,1,5.87,1,1.0,0,1.0,0,1.0,0,1.0
105,106,'1',0.00022,0.00116,0.0,138.0,138.0,138.0,0.0,0.0,0.0,0.0,1,1,0.0,1,1.0,0,1.0,0,1.0,0,1.0
106,58,'1',0.00702,0.04235,0.00478,173.5,173.5,173.5,0.0,0.0,0.0,0.0,1,1,8.85,1,1.0,0,1.0,0,1.0,0,1.0
107,534,'1',0.04439,0.15936,0.03758,161.7,161.7,161.7,0.0,0.0,0.0,0.0,1,1,41.27,1,1.0,0,1.0,0,1.0,0,1.0
108,463,'1',0.01303,0.05543,0.00595,150.4,150.4,150.4,0.0,0.0,0.0,0.0,1,1,12.25,1,1.0,0,1.0,0,1.0,0,1.0
109,107,'1',0.0071,0.03082,0.00727,128.3,128.3,128.3,0.0,0.0,0.0,0.0,1,1,8.86,1,1.0,0,1.0,0,1.0,0,1.0
109,117,'1',0.0133,0.06028,0.00504,150.4,150.4,150.4,0.0,0.0,0.0,0.0,1,1,10.65,1,1.0,0,1.0,0,1.0,0,1.0
109,249,'1',0.04327,0.21711,0.01501,142.2,142.2,142.2,0.0,0.0,0.0,0.0,1,1,31.13,1,1.0,0,1.0,0,1.0,0,1.0
110,111,'1',0.00881,0.03152,0.05498,204.0,204.0,204.0,0.0,0.0,0.0,0.0,1,1,22.35,1,1.0,0,1.0,0,1.0,0,1.0
111,261,'1',0.03907,0.19534,0.01572,135.9,135.9,135.9,0.0,0.0,0.0,0.0,1,1,30.39,1,1.0,0,1.0,0,1.0,0,1.0
112,73,'1',0.01206,0.0635,0.00756,187.3,187.3,187.3,0.0,0.0,0.0,0.0,1,1,12.0,1,1.0,0,1.0,0,1.0,0,1.0
112,115,'1',0.00297,0.01737,0.00311,172.2,172.2,172.2,0.0,0.0,0.0,0.0,1,1,4.69,1,1.0,0,1.0,0,1.0,0,1.0
113,115,'1',0.01381,0.04348,0.0026,170.2,170.2,170.2,0.0,0.0,0.0,0.0,1,1,6.41,1,1.0,0,1.0,0,1.0,0,1.0
113,373,'1',0.01154,0.06572,0.00223,164.9,164.9,164.9,0.0,0.0,0.0,0.0,1,1,8.51,1,1.0,0,1.0,0,1.0,0,1.0
114,115,'1',0.00024,0.00117,0.0,345.0,345.0,345.0,0.0,0.0,0.0,0.0,1,1,0.0,1,1.0,0,1.0,0,1.0,0,1.0
116,112,'1',0.02795,0.09056,0.00409,119.4,119.4,119.4,0.0,0.0,0.0,0.0,1,1,11.44,1,1.0,0,1.0,0,1.0,0,1.0
116,115,'1',0.01108,0.05171,0.00731,100.8,100.8,100.8,0.0,0.0,0.0,0.0,1,1,12.44,1,1.0,0,1.0,0,1.0,0,1.0
117,616,'1',0.00285,0.01589,0.00712,153.9,153.9,153.9,0.0,0.0,0.0,0.0,1,1,7.08,1,1.0,0,1.0,0,1.0,0,1.0
118,106,'1',0.01139,0.05676,0.0072,178.7,178.7,178.7,0.0,0.0,0.0,0.0,1,1,12.94,1,1.0,0,1.0,0,1.0,0,1.0
119,70,'1',0.02097,0.09364,0.02218,146.7,146.7,146.7,0.0,0.0,0.0,0.0,1,1,24.67,1,1.0,0,1.0,0,1.0,0,1.0
119,120,'1',0.00419,0.02113,0.00554,148.5,148.5,148.5,0.0,0.0,0.0,0.0,1,1,7.18,1,1.0,0,1.0,0,1.0,0,1.0
119,133,'1',0.01573,0.07063,0.00987,103.5,103.5,103.5,0.0,0.0,0.0,0.0,1,1,14.95,1,1.0,0,1.0,0,1.0,0,1.0
120,121,'1',0.01609,0.07601,0.00787,163.5,163.5,163.5,0.0,0.0,0.0,0.0,1,1,13.51,1,1.0,0,1.0,0,1.0,0,1.0
120,133,'1',0.01978,0.09754,0.01419,121.5,121.5,121.5,0.0,0.0,0.0,0.0,1,1,19.18,1,1.0,0,1.0,0,1.0,0,1.0
121,154,'1',0.01452,0.05895,0.01038,169.9,169.9,169.9,0.0,0.0,0.0,0.0,1,1,13.44,1,1.0,0,1.0,0,1.0,0,1.0
122,124,'1',0.00027,0.00107,0.0,690.0,690.0,690.0,0.0,0.0,0.0,0.0,1,1,0.0,1,1.0,0,1.0,0,1.0,0,1.0
123,39,'1',0.01755,0.07489,0.01607,145.4,145.4,145.4,0.0,0.0,0.0,0.0,1,1,18.49,1,1.0,0,1.0,0,1.0,0,1.0
125,33,'1',0.08644,0.32874,0.02869,159.1,159.1,159.1,0.0,0.0,0.0,0.0,1,1,51.2,1,1.0,0,1.0,0,1.0,0,1.0
125,140,'1',0.01322,0.04697,0.01132,145.3,145.3,145.3,0.0,0.0,0.0,0.0,1,1,13.01,1,1.0,0,1.0,0,1.0,0,1.0
126,128,'1',0.05475,0.21697,0.03636,156.0,156.0,156.0,0.0,0.0,0.0,0.0,1,1,46.06,1,1.0,0,1.0,0,1.0,0,1.0
126,137,'1',0.01927,0.08931,0.00879,130.7,130.7,130.7,0.0,0.0,0.0,0.0,1,1,15.66,1,1.0,0,1.0,0,1.0,0,1.0
126,138,'1',0.03653,0.15094,0.02178,151.5,151.5,151.5,0.0,0.0,0.0,0.0,1,1,30.61,1,1.0,0,1.0,0,1.0,0,1.0
126,139,'1',0.03657,0.17579,0.02874,140.6,140.6,140.6,0.0,0.0,0.0,0.0,1,1,38.39,1,1.0,0,1.0,0,1.0,0,1.0
126,147,'1',0.01795,0.07646,0.01912,128.4,128.4,128.4,0.0,0.0,0.0,0.0,1,1,21.25,1,1.0,0,1.0,0,1.0,0,1.0
127,118,'1',0.007,0.02635,0.00515,173.7,173.7,173.7,0.0,0.0,0.0,0.0,1,1,7.64,1,1.0,0,1.0,0,1.0,0,1.0
127,131,'1',0.01735,0.08945,0.0177,165.3,165.3,165.3,0.0,0.0,0.0,0.0,1,1,22.27,1,1.0,0,1.0,0,1.0,0,1.0
128,118,'1',0.01773,0.04454,0.00829,149.5,149.5,149.5,0.0,0.0,0.0,0.0,1,1,11.53,1,1.0,0,1.0,0,1.0,0,1.0
128,129,'1',0.00028,0.00106,0.0,138.0,138.0,138.0,0.0,0.0,0.0,0.0,1,1,0.0,1,1.0,0,1.0,0,1.0,0,1.0
130,131,'1',0.01691,0.06574,0.00698,148.7,148.7,148.7,0.0,0.0,0.0,0.0,1,1,11.29,1,1.0,0,1.0,0,1.0,0,1.0
131,475,'1',0.0716,0.32698,0.01862,153.4,153.4,153.4,0.0,0.0,0.0,0.0,1,1,42.46,1,1.0,0,1.0,0,1.0,0,1.0
134,136,'1',0.00026,0.00112,0.0,690.0,690.0,690.0,0.0,0.0,0.0,0.0,1,1,0.0,1,1.0,0,1.0,0,1.0,0,1.0
135,137,'1',0.05863,0.22774,0.02594,136.8,136.8,136.8,0.0,0.0,0.0,0.0,1,1,40.94,1,1.0,0,1.0,0,1.0,0,1.0
135,145,'1',0.02729,0.1088,0.03872,179.1,179.1,179.1,0.0,0.0,0.0,0.0,1,1,33.9,1,1.0,0,1.0,0,1.0,0,1.0
137,151,'1',0.01734,0.06356,0.01785,125.5,125.5,125.5,0.0,0.0,0.0,0.0,1,1,18.97,1,1.0,0,1.0,0,1.0,0,1.0
138,561,'1',0.00494,0.02121,0.00177,158.9,158.9,158.9,0.0,0.0,0.0,0.0,1,1,4.38,1,1.0,0,1.0,0,1.0,0,1.0
139,561,'1',0.01495,0.06824,0.00475,146.7,146.7,146.7,0.0,0.0,0.0,0.0,1,1,10.27,1,1.0,0,1.0,0,1.0,0,1.0
141,144,'1',0.00027,0.00106,0.0,1000.0,1000.0,1000.0,0.0,0.0,0.0,0.0,1,1,0.0,1,1.0,0,1.0,0,1.0,0,1.0
142,141,'1',0.0001,0.001,0.0,782.8,782.8,782.8,0.0,0.0,0.0,0.0,1,1,0.0,1,1.0,0,1.0,0,1.0,0,1.0
142,153,'1',0.00142,0.01154,0.03236,609.3,609.3,609.3,0.0,0.0,0.0,0.0,1,1,11.79,1,1.0,0,1.0,0,1.0,0,1.0
143,151,'1',0.00479,0.01793,0.00235,169.0,169.0,169.0,0.0,0.0,0.0,0.0,1,1,4.34,1,1.0,0,1.0,0,1.0,0,1.0
144,600,'1',0.00096,0.00828,0.05577,530.1,530.1,530.1,0.0,0.0,0.0,0.0,1,1,12.2,1,1.0,0,1.0,0,1.0,0,1.0
145,146,'1',0.00022,0.0011,0.0,345.0,345.0,345.0,0.0,0.0,0.0,0.0,1,1,0.0,1,1.0,0,1.0,0,1.0,0,1.0
145,157,'1',0.01243,0.04954,0.00506,160.1,160.1,160.1,0.0,0.0,0.0,0.0,1,1,9.75,1,1.0,0,1.0,0,1.0,0,1.0
147,132,'1',0.00809,0.03748,0.00657,159.9,159.9,159.9,0.0,0.0,0.0,0.0,1,1,9.91,1,1.0,0,1.0,0,1.0,0,1.0
147,468,'1',0.02658,0.14365,0.01966,155.0,155.0,155.0,0.0,0.0,0.0,0.0,1,1,27.69,1,1.0,0,1.0,0,1.0,0,1.0
148,151,'1',0.0037,0.02019,0.00271,205.1,205.1,205.1,0.0,0.0,0.0,0.0,1,1,4.8,1,1.0,0,1.0,0,1.0,0,1.0
149,65,'1',0.00472,0.04493,0.08558,629.3,629.3,629.3,0.0,0.0,0.0,0.0,1,1,32.22,1,1.0,0,1.0,0,1.0,0,1.0
149,142,'1',0.00229,0.02196,0.01927,574.1,574.1,574.1,0.0,0.0,0.0,0.0,1,1,11.54,1,1.0,0,1.0,0,1.0,0,1.0
149,601,'1',0.00151,0.01543,0.03688,631.2,631.2,631.2,0.0,0.0,0.0,0.0,1,1,12.75,1,1.0,0,1.0,0,1.0,0,1.0
151,147,'1',0.00664,0.02439,0.0021,171.8,171.8,171.8,0.0,0.0,0.0,0.0,1,1,4.81,1,1.0,0,1.0,0,1.0,0,1.0
152,150,'1',0.00627,0.03057,0.00174,167.5,167.5,167.5,0.0,0.0,0.0,0.0,1,1,5.1,1,1.0,0,1.0,0,1.0,0,1.0
152,158,'1',0.00728,0.0316,0.00698,157.8,157.8,157.8,0.0,0.0,0.0,0.0,1,1,9.51,1,1.0,0,1.0,0,1.0,0,1.0
154,159,'1',0.00373,0.01636,0.00297,195.7,195.7,195.7,0.0,0.0,0.0,0.0,1,1,4.11,1,1.0,0,1.0,0,1.0,0,1.0
155,154,'1',0.00292,0.01533,0.00183,162.2,162.2,162.2,0.0,0.0,0.0,0.0,1,1,3.59,1,1.0,0,1.0,0,1.0,0,1.0
155,156,'1',0.00024,0.00108,0.0,138.0,138.0,138.0,0.0,0.0,0.0,0.0,1,1,0.0,1,1.0,0,1.0,0,1.0,0,1.0
155,157,'1',0.00467,0.02837,0.00326,150.6,150.6,150.6,0.0,0.0,0.0,0.0,1,1,5.54,1,1.0,0,1.0,0,1.0,0,1.0
158,127,'1',0.00631,0.03374,0.00724,174.5,174.5,174.5,0.0,0.0,0.0,0.0,1,1,10.72,1,1.0,0,1.0,0,1.0,0,1.0
158,150,'1',0.0044,0.02608,0.00301,172.2,172.2,172.2,0.0,0.0,0.0,0.0,1,1,5.9,1,1.0,0,1.0,0,1.0,0,1.0
159,161,'1',0.00443,0.02192,0.00371,169.3,169.3,169.3,0.0,0.0,0.0,0.0,1,1,5.29,1,1.0,0,1.0,0,1.0,0,1.0
159,162,'1',0.0135,0.05937,0.00288,139.9,139.9,139.9,0.0,0.0,0.0,0.0,1,1,8.58,1,1.0,0,1.0,0,1.0,0,1.0
160,148,'1',0.00531,0.02513,0.00263,196.0,196.0,196.0,0.0,0.0,0.0,0.0,1,1,4.7,1,1.0,0,1.0,0,1.0,0,1.0
160,161,'1',0.00372,0.01524,0.0023,179.6,179.6,179.6,0.0,0.0,0.0,0.0,1,1,4.67,1,1.0,0,1.0,0,1.0,0,1.0
161,162,'1',0.00732,0.03622,0.00247,125.2,125.2,125.2,0.0,0.0,0.0,0.0,1,1,5.62,1,1.0,0,1.0,0,1.0,0,1.0
162,163,'1',0.00022,0.00105,0.0,345.0,345.0,345.0,0.0,0.0,0.0,0.0,1,1,0.0,1,1.0,0,1.0,0,1.0,0,1.0
164,167,'1',0.00427,0.01559,0.00148,170.7,170.7,170.7,0.0,0.0,0.0,0.0,1,1,3.58,1,1.0,0,1.0,0,1.0,0,1.0
164,171,'1',0.01079,0.04997,0.00358,133.5,133.5,133.5,0.0,0.0,0.0,0.0,1,1,9.4,1,1.0,0,1.0,0,1.0,0,1.0
166,165,'1',0.0001,0.001,0.0,670.3,670.3,670.3,0.0,0.0,0.0,0.0,1,1,0.0,1,1.0,0,1.0,0,1.0,0,1.0
166,168,'1',0.00029,0.00111,0.0,690.0,690.0,690.0,0.0,0.0,0.0,0.0,1,1,0.0,1,1.0,0,1.0,0,1.0,0,1.0
168,613,'1',0.00619,0.05051,0.14414,516.4,516.4,516.4,0.0,0.0,0.0,0.0,1,1,47.47,1,1.0,0,1.0,0,1.0,0,1.0
169,170,'1',0.00027,0.00109,0.0,138.0,138.0,138.0,0.0,0.0,0.0,0.0,1,1,0.0,1,1.0,0,1.0,0,1.0,0,1.0
170,164,'1',0.0076,0.04174,0.0096,151.9,151.9,151.9,0.0,0.0,0.0,0.0,1,1,12.86,1,1.0,0,1.0,0,1.0,0,1.0
171,167,'1',0.01426,0.05872,0.00459,158.9,158.9,158.9,0.0,0.0,0.0,0.0,1,1,11.63,1,1.0,0,1.0,0,1.0,0,1.0
171,172,'1',0.0161,0.05981,0.01573,125.0,125.0,125.0,0.0,0.0,0.0,0.0,1,1,16.61,1,1.0,0,1.0,0,1.0,0,1.0
172,43,'1',0.03117,0.13925,0.01117,157.5,157.5,157.5,0.0,0.0,0.0,0.0,1,1,21.34,1,1.0,0,1.0,0,1.0,0,1.0
...
0 / END OF BRANCH DATA BEGIN TRANSFORMER DATA
9,8,0,'1',1,1,1,0.0,0.0,2,'            ',1,1,1.0,0,1.0,0,1.0,0,1.0,'            '
0.00183,0.06646,100.0
1.0,115.0,0.0,181.7,181.7,181.7,0,8,1.1,0.9,1.01,0.99,33,0,0.0,0.0,0.0
1.0,230.0
14,13,0,'1',1,1,1,0.0,0.0,2,'            ',1,1,1.0,0,1.0,0,1.0,0,1.0,'            '
0.0012,0.05438,100.0
1.0,115.0,0.0,244.1,244.1,244.1,0,13,1.1,0.9,1.01,0.99,33,0,0.0,0.0,0.0
1.0,230.0
21,20,0,'1',1,1,1,0.0,0.0,2,'            ',1,1,1.0,0,1.0,0,1.0,0,1.0,'            '
0.00195,0.08874,100.0
1.0,115.0,0.0,160.1,160.1,160.1,0,20,1.1,0.9,1.01,0.99,33,0,0.0,0.0,0.0
1.0,230.0
38,37,0,'1',1,1,1,0.0,0.0,2,'            ',1,1,1.0,0,1.0,0,1.0,0,1.0,'            '
0.00139,0.05436,100.0
1.0,115.0,0.0,145.6,145.6,145.6,0,37,1.1,0.9,1.01,0.99,33,0,0.0,0.0,0.0
1.0,230.0
48,47,0,'1',1,1,1,0.0,0.0,2,'            ',1,1,1.0,0,1.0,0,1.0,0,1.0,'            '
0.00097,0.03629,100.0
1.0,115.0,0.0,177.0,177.0,177.0,0,47,1.1,0.9,1.01,0.99,33,0,0.0,0.0,0.0
1.0,230.0
64,63,0,'1',1,1,1,0.0,0.0,2,'            ',1,1,1.0,0,1.0,0,1.0,0,1.0,'            '
0.00164,0.06974,100.0
1.0,115.0,0.0,244.6,244.6,244.6,0,63,1.1,0.9,1.01,0.99,33,0,0.0,0.0,0.0
1.0,230.0
66,65,0,'1',1,1,1,0.0,0.0,2,'            ',1,1,1.0,0,1.0,0,1.0,0,1.0,'            '
0.0012,0.05508,100.0
1.0,115.0,-6.0,271.1,271.1,271.1,-3,65,30.0,-30.0,101.0,99.0,31,29,0.0,0.0,0.0
1.0,230.0
72,71,0,'1',1,1,1,0.0,0.0,2,'            ',1,1,1.0,0,1.0,0,1.0,0,1.0,'            '
0.00097,0.04679,100.0
1.0,115.0,0.0,140.7,140.7,140.7,0,71,1.1,0.9,1.01,0.99,33,0,0.0,0.0,0.0
1.0,230.0
84,86,0,'1',1,1,1,0.0,0.0,2,'            ',1,1,1.0,0,1.0,0,1.0,0,1.0,'            '
0.00143,0.07416,100.0
1.0,230.0,0.0,235.4,235.4,235.4,0,0,1.5,0.51,1.5,0.51,159,0,0.0,0.0,0.0
1.0,115.0
85,84,0,'1',1,1,1,0.0,0.0,2,'            ',1,1,1.0,0,1.0,0,1.0,0,1.0,'            '
0.00143,0.07416,100.0
1.0,115.0,0.0,235.4,235.4,235.4,0,84,1.1,0.9,1.01,0.99,33,0,0.0,0.0,0.0
1.0,230.0
100,98,0,'1',1,1,1,0.0,0.0,2,'            ',1,1,1.0,0,1.0,0,1.0,0,1.0,'            '
0.00223,0.0832,100.0
1.0,115.0,0.0,263.8,263.8,263.8,0,98,1.1,0.9,1.01,0.99,33,0,0.0,0.0,0.0
1.0,230.0
104,103,0,'1',1,1,1,0.0,0.0,2,'            ',1,1,1.0,0,1.0,0,1.0,0,1.0,'            '
0.00119,0.05827,100.0
1.0,115.0,0.0,180.2,180.2,180.2,0,103,1.1,0.9,1.01,0.99,33,0,0.0,0.0,0.0
1.0,230.0
123,122,0,'1',1,1,1,0.0,0.0,2,'            ',1,1,1.0,0,1.0,0,1.0,0,1.0,'            '
0.0012,0.06691,100.0
1.0,115.0,0.0,112.2,112.2,112.2,0,122,1.1,0.9,1.01,0.99,33,0,0.0,0.0,0.0
1.0,230.0
135,134,0,'1',1,1,1,0.0,0.0,2,'            ',1,1,1.0,0,1.0,0,1.0,0,1.0,'            '
0.00143,0.07303,100.0
1.0,115.0,0.0,179.6,179.6,179.6,0,134,1.1,0.9,1.01,0.99,33,0,0.0,0.0,0.0
1.0,230.0
143,142,0,'1',1,1,1,0.0,0.0,2,'            ',1,1,1.0,0,1.0,0,1.0,0,1.0,'            '
0.00147,0.05981,100.0
1.0,115.0,0.0,216.5,216.5,216.5,0,142,1.1,0.9,1.01,0.99,33,0,0.0,0.0,0.0
1.0,230.0
150,149,0,'1',1,1,1,0.0,0.0,2,'            ',1,1,1.0,0,1.0,0,1.0,0,1.0,'            '
0.00098,0.04276,100.0
1.0,115.0,0.0,269.6,269.6,269.6,0,149,1.1,0.9,1.01,0.99,33,0,0.0,0.0,0.0
1.0,230.0
154,153,0,'1',1,1,1,0.0,0.0,2,'            ',1,1,1.0,0,1.0,0,1.0,0,1.0,'            '
0.00117,0.05409,100.0
1.0,115.0,0.0,277.3,277.3,277.3,0,153,1.1,0.9,1.01,0.99,33,0,0.0,0.0,0.0
1.0,230.0
154,153,0,'2',1,1,1,0.0,0.0,2,'            ',1,1,1.0,0,1.0,0,1.0,0,1.0,'            '
0.00117,0.05409,100.0
1.0,115.0,0.0,277.3,277.3,277.3,0,153,1.1,0.9,1.01,0.99,33,0,0.0,0.0,0.0
1.0,230.0
167,166,0,'1',1,1,1,0.0,0.0,2,'            ',1,1,1.0,0,1.0,0,1.0,0,1.0,'            '
0.00141,0.05505,100.0
1.0,115.0,0.0,224.3,224.3,224.3,0,166,1.1,0.9,1.01,0.99,33,0,0.0,0.0,0.0
1.0,230.0
187,186,0,'1',1,1,1,0.0,0.0,2,'            ',1,1,1.0,0,1.0,0,1.0,0,1.0,'            '
0.00068,0.03758,100.0
1.0,115.0,0.0,270.9,270.9,270.9,0,186,1.1,0.9,1.01,0.99,33,0,0.0,0.0,0.0
1.0,230.0
203,201,0,'1',1,1,1,0.0,0.0,2,'            ',1,1,1.0,0,1.0,0,1.0,0,1.0,'            '
0.00141,0.05973,100.0
1.0,115.0,0.0,156.4,156.4,156.4,0,201,1.1,0.9,1.01,0.99,33,0,0.0,0.0,0.0
1.0,230.0
210,209,0,'1',1,1,1,0.0,0.0,2,'            ',1,1,1.0,0,1.0,0,1.0,0,1.0,'            '
0.00136,0.06915,100.0
1.0,115.0,0.0,220.4,220.4,220.4,0,209,1.1,0.9,1.01,0.99,33,0,0.0,0.0,0.0
1.0,230.0
212,211,0,'1',1,1,1,0.0,0.0,2,'            ',1,1,1.0,0,1.0,0,1.0,0,1.0,'            '
0.0019,0.07828,100.0
1.0,115.0,0.0,208.6,208.6,208.6,0,211,1.1,0.9,1.01,0.99,33,0,0.0,0.0,0.0
1.0,230.0
217,216,0,'1',1,1,1,0.0,0.0,2,'            ',1,1,1.0,0,1.0,0,1.0,0,1.0,'            '
0.0007,0.03192,100.0
1.0,115.0,0.0,241.9,241.9,241.9,0,216,1.1,0.9,1.01,0.99,33,0,0.0,0.0,0.0
1.0,230.0
231,230,0,'1',1,1,1,0.0,0.0,2,'            ',1,1,1.0,0,1.0,0,1.0,0,1.0,'            '
0.00138,0.05366,100.0
1.0,115.0,0.0,230.5,230.5,230.5,0,230,1.1,0.9,1.01,0.99,33,0,0.0,0.0,0.0
1.0,230.0
235,234,0,'1',1,1,1,0.0,0.0,2,'            ',1,1,1.0,0,1.0,0,1.0,0,1.0,'            '
0.00141,0.06492,100.0
1.0,115.0,0.0,228.2,228.2,228.2,0,234,1.1,0.9,1.01,0.99,33,0,0.0,0.0,0.0
1.0,230.0
259,258,0,'1',1,1,1,0.0,0.0,2,'            ',1,1,1.0,0,1.0,0,1.0,0,1.0,'            '
0.00136,0.05904,100.0
1.0,115.0,0.0,202.7,202.7,202.7,0,258,1.1,0.9,1.01,0.99,33,0,0.0,0.0,0.0
1.0,230.0
...